dopamine
     RDKit          3D

 16 16  0  0  0  0  0  0  0  0999 V2000
   -1.0283   -0.3131   -1.5823 N   0  0  0  0  0  0  0  0  0  0  0  0
   -1.1562   -1.3537   -0.5261 C   0  0  0  0  0  0  0  0  0  0  0  0
   -0.3926   -0.9522    0.7383 C   0  0  0  0  0  0  0  0  0  0  0  0
    1.0783   -0.7417    0.4770 C   0  0  0  0  0  0  0  0  0  0  0  0
    1.9578   -1.8357    0.3976 C   0  0  0  0  0  0  0  0  0  0  0  0
    3.3137   -1.6432    0.1069 C   0  0  0  0  0  0  0  0  0  0  0  0
    3.7849   -0.3563   -0.1152 C   0  0  0  0  0  0  0  0  0  0  0  0
    5.0915   -0.1008   -0.4150 O   0  0  0  0  0  0  0  0  0  0  0  0
    2.9182    0.7281   -0.0379 C   0  0  0  0  0  0  0  0  0  0  0  0
    3.3730    1.9920   -0.2728 O   0  0  0  0  0  0  0  0  0  0  0  0
    1.5767    0.5518    0.2692 C   0  0  0  0  0  0  0  0  0  0  0  0
   -0.0418   -0.1859   -1.8562 H   0  0  0  0  0  0  0  0  0  0  0  0
   -1.5478   -0.5684   -2.4314 H   0  0  0  0  0  0  0  0  0  0  0  0
   -1.3731    0.6027   -1.2668 H   0  0  0  0  0  0  0  0  0  0  0  0
    5.6021   -0.9267   -0.3402 H   0  0  0  0  0  0  0  0  0  0  0  0
    4.3393    1.8939   -0.4064 H   0  0  0  0  0  0  0  0  0  0  0  0
  1  2  1  0
  2  3  1  0
  3  4  1  0
  4  5  1  0
  5  6  2  0
  6  7  1  0
  7  8  1  0
  7  9  2  0
  9 10  1  0
  9 11  1  0
 11  4  2  0
  1 12  1  0
  1 13  1  0
  1 14  1  0
  8 15  1  0
 10 16  1  0
M  CHG  1   1   1
M  END
$$$$
