R-7-OH-DPAT
     RDKit          3D

 20 21  0  0  0  0  0  0  0  0999 V2000
   -4.2549    1.2163   -2.9625 C   0  0  0  0  0  0  0  0  0  0  0  0
   -2.9797    1.5636   -2.2103 C   0  0  0  0  0  0  0  0  0  0  0  0
   -3.0913    1.1806   -0.7368 C   0  0  0  0  0  0  0  0  0  0  0  0
   -1.8048    1.5518   -0.0035 N   0  0  0  0  0  0  0  0  0  0  0  0
   -2.0654    1.9899    1.4310 C   0  0  0  0  0  0  0  0  0  0  0  0
   -2.5907    3.4250    1.4994 C   0  0  0  0  0  0  0  0  0  0  0  0
   -1.5654    4.4696    1.0798 C   0  0  0  0  0  0  0  0  0  0  0  0
   -0.7138    0.4747   -0.1576 C   0  0  0  0  0  3  0  0  0  0  0  0
   -0.8959   -0.6815    0.8278 C   0  0  0  0  0  0  0  0  0  0  0  0
    0.1066   -1.7906    0.5052 C   0  0  0  0  0  0  0  0  0  0  0  0
    1.5110   -1.2786    0.2999 C   0  0  0  0  0  0  0  0  0  0  0  0
    2.5749   -2.1947    0.3359 C   0  0  0  0  0  0  0  0  0  0  0  0
    3.8886   -1.7739    0.1228 C   0  0  0  0  0  0  0  0  0  0  0  0
    4.1398   -0.4333   -0.1326 C   0  0  0  0  0  0  0  0  0  0  0  0
    5.4032    0.0301   -0.3430 O   0  0  0  0  0  0  0  0  0  0  0  0
    3.1012    0.4889   -0.1832 C   0  0  0  0  0  0  0  0  0  0  0  0
    1.7767    0.0750    0.0195 C   0  0  0  0  0  0  0  0  0  0  0  0
    0.6803    1.1081   -0.0147 C   0  0  0  0  0  0  0  0  0  0  0  0
   -1.4344    2.3762   -0.4915 H   0  0  0  0  0  0  0  0  0  0  0  0
    6.0288   -0.7111   -0.2740 H   0  0  0  0  0  0  0  0  0  0  0  0
  1  2  1  0
  2  3  1  0
  3  4  1  0
  4  5  1  0
  5  6  1  0
  6  7  1  0
  8  4  1  1
  8  9  1  0
  9 10  1  0
 10 11  1  0
 11 12  1  0
 12 13  2  0
 13 14  1  0
 14 15  1  0
 14 16  2  0
 16 17  1  0
 17 18  1  0
 18  8  1  0
 17 11  2  0
  4 19  1  0
 15 20  1  0
M  CHG  1   4   1
M  RAD  1   8   2
M  END
$$$$
