7-OH-DPAT
     RDKit          3D

 20 21  0  0  0  0  0  0  0  0999 V2000
   -1.7626    3.9042   -1.7835 C   0  0  0  0  0  0  0  0  0  0  0  0
   -0.5603    3.5841   -0.9064 C   0  0  0  0  0  0  0  0  0  0  0  0
   -0.9166    2.8160    0.3663 C   0  0  0  0  0  0  0  0  0  0  0  0
   -1.3694    1.3855    0.0570 N   0  0  0  0  0  0  0  0  0  0  0  0
   -2.6272    1.0461    0.8632 C   0  0  0  0  0  0  0  0  0  0  0  0
   -3.8565    1.6903    0.2260 C   0  0  0  0  0  0  0  0  0  0  0  0
   -5.1226    1.3111    0.9790 C   0  0  0  0  0  0  0  0  0  0  0  0
   -0.2521    0.3199    0.2579 C   0  0  0  0  0  3  0  0  0  0  0  0
   -0.7582   -1.0587   -0.2396 C   0  0  0  0  0  0  0  0  0  0  0  0
    0.3058   -1.9760   -0.8595 C   0  0  0  0  0  0  0  0  0  0  0  0
    1.6914   -1.6983   -0.3520 C   0  0  0  0  0  0  0  0  0  0  0  0
    2.6104   -2.7299   -0.1398 C   0  0  0  0  0  0  0  0  0  0  0  0
    3.9098   -2.4344    0.2737 C   0  0  0  0  0  0  0  0  0  0  0  0
    4.3033   -1.1094    0.4639 C   0  0  0  0  0  0  0  0  0  0  0  0
    3.3914   -0.0816    0.2391 C   0  0  0  0  0  0  0  0  0  0  0  0
    3.7573    1.2206    0.4199 O   0  0  0  0  0  0  0  0  0  0  0  0
    2.0856   -0.3628   -0.1659 C   0  0  0  0  0  0  0  0  0  0  0  0
    1.0644    0.7120   -0.4327 C   0  0  0  0  0  0  0  0  0  0  0  0
   -1.6256    1.3391   -0.9370 H   0  0  0  0  0  0  0  0  0  0  0  0
    4.7092    1.2478    0.6249 H   0  0  0  0  0  0  0  0  0  0  0  0
  1  2  1  0
  2  3  1  0
  3  4  1  0
  4  5  1  0
  5  6  1  0
  6  7  1  0
  8  4  1  6
  8  9  1  0
  9 10  1  0
 10 11  1  0
 11 12  1  0
 12 13  2  0
 13 14  1  0
 14 15  2  0
 15 16  1  0
 15 17  1  0
 17 18  1  0
 18  8  1  0
 17 11  2  0
  4 19  1  0
 16 20  1  0
M  CHG  1   4   1
M  RAD  1   8   2
M  END
$$$$
