apomorphine
     RDKit          3D

 23 26  0  0  0  0  0  0  0  0999 V2000
   -3.0389   -2.0508    0.6097 C   0  0  0  0  0  0  0  0  0  0  0  0
   -2.5305   -0.7379    0.0880 N   0  0  0  0  0  0  0  0  0  0  0  0
   -3.3039    0.4169    0.6944 C   0  0  0  0  0  0  0  0  0  0  0  0
   -2.9901    1.7007   -0.0624 C   0  0  0  0  0  0  0  0  0  0  0  0
   -1.5128    1.9305   -0.2299 C   0  0  0  0  0  0  0  0  0  0  0  0
   -1.0667    3.2024   -0.6004 C   0  0  0  0  0  0  0  0  0  0  0  0
    0.2859    3.4310   -0.8153 C   0  0  0  0  0  0  0  0  0  0  0  0
    1.2068    2.3938   -0.6598 C   0  0  0  0  0  0  0  0  0  0  0  0
    0.8074    1.1047   -0.2735 C   0  0  0  0  0  0  0  0  0  0  0  0
   -0.5815    0.8789   -0.0863 C   0  0  0  0  0  0  0  0  0  0  0  0
   -1.0288   -0.5200    0.3031 C   0  0  0  0  0  3  0  0  0  0  0  0
   -0.2112   -1.5601   -0.4932 C   0  0  0  0  0  0  0  0  0  0  0  0
    1.2692   -1.3500   -0.2652 C   0  0  0  0  0  0  0  0  0  0  0  0
    2.1298   -2.4633   -0.2140 C   0  0  0  0  0  0  0  0  0  0  0  0
    3.4897   -2.2941    0.0317 C   0  0  0  0  0  0  0  0  0  0  0  0
    3.9768   -1.0130    0.2328 C   0  0  0  0  0  0  0  0  0  0  0  0
    5.2972   -0.7818    0.5118 O   0  0  0  0  0  0  0  0  0  0  0  0
    3.1317    0.1018    0.1639 C   0  0  0  0  0  0  0  0  0  0  0  0
    3.7001    1.3223    0.4246 O   0  0  0  0  0  0  0  0  0  0  0  0
    1.7629   -0.0280   -0.1222 C   0  0  0  0  0  0  0  0  0  0  0  0
   -2.6900   -0.7127   -0.9278 H   0  0  0  0  0  0  0  0  0  0  0  0
    5.7749   -1.6301    0.4983 H   0  0  0  0  0  0  0  0  0  0  0  0
    4.6456    1.1319    0.5977 H   0  0  0  0  0  0  0  0  0  0  0  0
  1  2  1  0
  2  3  1  0
  3  4  1  0
  4  5  1  0
  5  6  1  0
  6  7  2  0
  7  8  1  0
  8  9  2  0
  9 10  1  0
 10 11  1  0
 11 12  1  6
 12 13  1  0
 13 14  1  0
 14 15  2  0
 15 16  1  0
 16 17  1  0
 16 18  2  0
 18 19  1  0
 18 20  1  0
 11  2  1  0
 20 13  2  0
 10  5  2  0
 20  9  1  0
  2 21  1  0
 17 22  1  0
 19 23  1  0
M  CHG  1   2   1
M  RAD  1  11   2
M  END
$$$$
