PD128907
     RDKit          3D

 20 22  0  0  0  0  0  0  0  0999 V2000
   -4.9065    1.5928    0.2437 C   0  0  0  0  0  0  0  0  0  0  0  0
   -3.9509    0.7792   -0.6195 C   0  0  0  0  0  0  0  0  0  0  0  0
   -2.6654    1.5256   -0.9702 C   0  0  0  0  0  0  0  0  0  0  0  0
   -1.7846    1.7486    0.2468 N   0  0  0  0  0  0  0  0  0  0  0  0
   -1.1707    3.1673    0.2059 C   0  0  0  0  0  0  0  0  0  0  0  0
    0.1518    3.2145    0.9740 C   0  0  0  0  0  0  0  0  0  0  0  0
    1.1445    2.3625    0.3932 O   0  0  0  0  0  0  0  0  0  0  0  0
    0.6453    1.1217   -0.1379 C   0  0  0  0  0  3  0  0  0  0  0  0
    1.6757    0.0361    0.0144 C   0  0  0  0  0  0  0  0  0  0  0  0
    3.0327    0.2992   -0.2257 C   0  0  0  0  0  0  0  0  0  0  0  0
    3.9789   -0.7124   -0.0931 C   0  0  0  0  0  0  0  0  0  0  0  0
    5.2803   -0.3921   -0.3351 O   0  0  0  0  0  0  0  0  0  0  0  0
    3.6022   -1.9978    0.2737 C   0  0  0  0  0  0  0  0  0  0  0  0
    2.2538   -2.2734    0.5019 C   0  0  0  0  0  0  0  0  0  0  0  0
    1.2948   -1.2682    0.3575 C   0  0  0  0  0  0  0  0  0  0  0  0
    0.0018   -1.6446    0.6066 O   0  0  0  0  0  0  0  0  0  0  0  0
   -1.0013   -0.7385    0.1401 C   0  0  0  0  0  0  0  0  0  0  0  0
   -0.6755    0.6983    0.5340 C   0  0  0  0  0  3  0  0  0  0  0  0
   -2.3860    1.7348    1.0807 H   0  0  0  0  0  0  0  0  0  0  0  0
    5.8349   -1.1782   -0.1940 H   0  0  0  0  0  0  0  0  0  0  0  0
  1  2  1  0
  2  3  1  0
  3  4  1  0
  4  5  1  0
  5  6  1  0
  6  7  1  0
  8  7  1  1
  8  9  1  0
  9 10  1  0
 10 11  2  0
 11 12  1  0
 11 13  1  0
 13 14  2  0
 14 15  1  0
 15 16  1  0
 16 17  1  0
 18 17  1  6
 18  4  1  0
 18  8  1  0
 15  9  2  0
  4 19  1  0
 12 20  1  0
M  CHG  1   4   1
M  RAD  2   8   2  18   2
M  END
$$$$
