apomorphine
     RDKit          3D

 23 26  0  0  0  0  0  0  0  0999 V2000
   -2.7002   -2.4661   -0.6626 C   0  0  0  0  0  0  0  0  0  0  0  0
   -2.3978   -1.0882   -0.1489 N   0  0  0  0  0  0  0  0  0  0  0  0
   -3.3065   -0.0617   -0.7971 C   0  0  0  0  0  0  0  0  0  0  0  0
   -3.1998    1.2631   -0.0536 C   0  0  0  0  0  0  0  0  0  0  0  0
   -1.7753    1.7009    0.1528 C   0  0  0  0  0  0  0  0  0  0  0  0
   -1.5241    3.0276    0.5143 C   0  0  0  0  0  0  0  0  0  0  0  0
   -0.2243    3.4472    0.7646 C   0  0  0  0  0  0  0  0  0  0  0  0
    0.8375    2.5482    0.6536 C   0  0  0  0  0  0  0  0  0  0  0  0
    0.6353    1.2109    0.2779 C   0  0  0  0  0  0  0  0  0  0  0  0
   -0.7016    0.7892    0.0544 C   0  0  0  0  0  0  0  0  0  0  0  0
   -0.9356   -0.6636   -0.3239 C   0  0  0  0  0  3  0  0  0  0  0  0
   -0.0052   -1.5679    0.5134 C   0  0  0  0  0  0  0  0  0  0  0  0
    1.4373   -1.1542    0.3250 C   0  0  0  0  0  0  0  0  0  0  0  0
    2.4469   -2.1357    0.3178 C   0  0  0  0  0  0  0  0  0  0  0  0
    3.7766   -1.7797    0.1089 C   0  0  0  0  0  0  0  0  0  0  0  0
    4.0850   -0.4455   -0.0998 C   0  0  0  0  0  0  0  0  0  0  0  0
    5.3679   -0.0341   -0.3442 O   0  0  0  0  0  0  0  0  0  0  0  0
    3.0899    0.5399   -0.0746 C   0  0  0  0  0  0  0  0  0  0  0  0
    3.4891    1.8249   -0.3394 O   0  0  0  0  0  0  0  0  0  0  0  0
    1.7447    0.2222    0.1738 C   0  0  0  0  0  0  0  0  0  0  0  0
   -2.5908   -1.0727    0.8613 H   0  0  0  0  0  0  0  0  0  0  0  0
    5.9593   -0.8065   -0.3024 H   0  0  0  0  0  0  0  0  0  0  0  0
    4.4569    1.7674   -0.4817 H   0  0  0  0  0  0  0  0  0  0  0  0
  1  2  1  0
  2  3  1  0
  3  4  1  0
  4  5  1  0
  5  6  1  0
  6  7  2  0
  7  8  1  0
  8  9  2  0
  9 10  1  0
 10 11  1  0
 11 12  1  1
 12 13  1  0
 13 14  1  0
 14 15  2  0
 15 16  1  0
 16 17  1  0
 16 18  2  0
 18 19  1  0
 18 20  1  0
 11  2  1  0
 20 13  2  0
 10  5  2  0
 20  9  1  0
  2 21  1  0
 17 22  1  0
 19 23  1  0
M  CHG  1   2   1
M  RAD  1  11   2
M  END
$$$$
