quinpirole
     RDKit          3D

 18 20  0  0  0  0  0  0  0  0999 V2000
   -3.8655   -2.3219    2.1900 C   0  0  0  0  0  0  0  0  0  0  0  0
   -3.5851   -2.1671    0.7029 C   0  0  0  0  0  0  0  0  0  0  0  0
   -3.2524   -0.7387    0.2744 C   0  0  0  0  0  0  0  0  0  0  0  0
   -2.0504   -0.1609    0.9994 N   0  0  0  0  0  0  0  0  0  0  0  0
   -1.9067    1.3312    0.7870 C   0  0  0  0  0  0  0  0  0  0  0  0
   -1.3249    1.6402   -0.5898 C   0  0  0  0  0  0  0  0  0  0  0  0
   -0.0071    0.9005   -0.8709 C   0  0  0  0  0  3  0  0  0  0  0  0
    1.1701    1.5437   -0.0759 C   0  0  0  0  0  0  0  0  0  0  0  0
    2.2829    0.5797    0.0574 C   0  0  0  0  0  0  0  0  0  0  0  0
    3.5290    0.8492    0.5446 N   0  0  0  0  0  0  0  0  0  0  0  0
    4.3064   -0.2449    0.6027 N   0  0  0  0  0  0  0  0  0  0  0  0
    3.5539   -1.2166    0.0804 C   0  0  0  0  0  0  0  0  0  0  0  0
    2.2727   -0.7565   -0.2662 C   0  0  0  0  0  0  0  0  0  0  0  0
    1.1071   -1.4366   -0.8684 C   0  0  0  0  0  0  0  0  0  0  0  0
   -0.1923   -0.6291   -0.6185 C   0  0  0  0  0  3  0  0  0  0  0  0
   -0.7322   -0.8852    0.7918 C   0  0  0  0  0  0  0  0  0  0  0  0
   -2.2622   -0.2604    2.0009 H   0  0  0  0  0  0  0  0  0  0  0  0
    3.9179    1.7315    0.8653 H   0  0  0  0  0  0  0  0  0  0  0  0
  1  2  1  0
  2  3  1  0
  3  4  1  0
  4  5  1  0
  5  6  1  0
  7  6  1  1
  7  8  1  0
  8  9  1  0
  9 10  1  0
 10 11  1  0
 11 12  2  0
 12 13  1  0
 13 14  1  0
 15 14  1  1
 15 16  1  0
 16  4  1  0
 15  7  1  0
 13  9  2  0
  4 17  1  0
 10 18  1  0
M  CHG  1   4   1
M  RAD  2   7   2  15   2
M  END
$$$$
