apomorphine
     RDKit          3D

 23 26  0  0  0  0  0  0  0  0999 V2000
   -2.8739   -2.3035   -0.4969 C   0  0  0  0  0  0  0  0  0  0  0  0
   -2.4708   -0.9188   -0.0792 N   0  0  0  0  0  0  0  0  0  0  0  0
   -3.3042    0.1236   -0.7992 C   0  0  0  0  0  0  0  0  0  0  0  0
   -3.0997    1.4854   -0.1489 C   0  0  0  0  0  0  0  0  0  0  0  0
   -1.6467    1.8318    0.0302 C   0  0  0  0  0  0  0  0  0  0  0  0
   -1.2989    3.1586    0.2995 C   0  0  0  0  0  0  0  0  0  0  0  0
    0.0286    3.4990    0.5233 C   0  0  0  0  0  0  0  0  0  0  0  0
    1.0220    2.5197    0.4776 C   0  0  0  0  0  0  0  0  0  0  0  0
    0.7223    1.1779    0.1950 C   0  0  0  0  0  0  0  0  0  0  0  0
   -0.6423    0.8400   -0.0022 C   0  0  0  0  0  0  0  0  0  0  0  0
   -0.9821   -0.6147   -0.2795 C   0  0  0  0  0  3  0  0  0  0  0  0
   -0.1178   -1.5240    0.6208 C   0  0  0  0  0  0  0  0  0  0  0  0
    1.3505   -1.2302    0.4078 C   0  0  0  0  0  0  0  0  0  0  0  0
    2.2862   -2.2806    0.4712 C   0  0  0  0  0  0  0  0  0  0  0  0
    3.6377   -2.0375    0.2414 C   0  0  0  0  0  0  0  0  0  0  0  0
    4.0416   -0.7469   -0.0585 C   0  0  0  0  0  0  0  0  0  0  0  0
    5.3503   -0.4477   -0.3276 O   0  0  0  0  0  0  0  0  0  0  0  0
    3.1208    0.3076   -0.1041 C   0  0  0  0  0  0  0  0  0  0  0  0
    3.6116    1.5388   -0.4563 O   0  0  0  0  0  0  0  0  0  0  0  0
    1.7566    0.1065    0.1624 C   0  0  0  0  0  0  0  0  0  0  0  0
   -2.6597   -0.8194    0.9270 H   0  0  0  0  0  0  0  0  0  0  0  0
    5.8842   -1.2562   -0.2309 H   0  0  0  0  0  0  0  0  0  0  0  0
    4.5723    1.4014   -0.5919 H   0  0  0  0  0  0  0  0  0  0  0  0
  1  2  1  0
  2  3  1  0
  3  4  1  0
  4  5  1  0
  5  6  1  0
  6  7  2  0
  7  8  1  0
  8  9  2  0
  9 10  1  0
 10 11  1  0
 11 12  1  1
 12 13  1  0
 13 14  1  0
 14 15  2  0
 15 16  1  0
 16 17  1  0
 16 18  2  0
 18 19  1  0
 18 20  1  0
 11  2  1  0
 20 13  2  0
 10  5  2  0
 20  9  1  0
  2 21  1  0
 17 22  1  0
 19 23  1  0
M  CHG  1   2   1
M  RAD  1  11   2
M  END
$$$$
