PD128907
     RDKit          3D

 20 22  0  0  0  0  0  0  0  0999 V2000
   -4.6183    0.0027   -0.4061 C   0  0  0  0  0  0  0  0  0  0  0  0
   -3.7439    0.3119    0.8005 C   0  0  0  0  0  0  0  0  0  0  0  0
   -2.8597    1.5422    0.6185 C   0  0  0  0  0  0  0  0  0  0  0  0
   -1.8275    1.3712   -0.4861 N   0  0  0  0  0  0  0  0  0  0  0  0
   -1.2014    2.7229   -0.8604 C   0  0  0  0  0  0  0  0  0  0  0  0
   -0.0386    3.0599    0.0831 C   0  0  0  0  0  0  0  0  0  0  0  0
    0.9858    2.0618    0.1536 O   0  0  0  0  0  0  0  0  0  0  0  0
    0.6771    0.8460   -0.5348 C   0  0  0  0  0  3  0  0  0  0  0  0
   -0.7231    0.3357   -0.1319 C   0  0  0  0  0  3  0  0  0  0  0  0
   -0.9223   -0.9997   -0.8487 C   0  0  0  0  0  0  0  0  0  0  0  0
   -0.0048   -1.9901   -0.3792 O   0  0  0  0  0  0  0  0  0  0  0  0
    1.2901   -1.5734   -0.2099 C   0  0  0  0  0  0  0  0  0  0  0  0
    1.6891   -0.2289   -0.2449 C   0  0  0  0  0  0  0  0  0  0  0  0
    3.0445    0.0790   -0.0638 C   0  0  0  0  0  0  0  0  0  0  0  0
    3.9664   -0.9353    0.1755 C   0  0  0  0  0  0  0  0  0  0  0  0
    3.5671   -2.2650    0.2328 C   0  0  0  0  0  0  0  0  0  0  0  0
    2.2221   -2.5824    0.0402 C   0  0  0  0  0  0  0  0  0  0  0  0
    5.2681   -0.5739    0.3487 O   0  0  0  0  0  0  0  0  0  0  0  0
   -2.3226    1.0551   -1.3297 H   0  0  0  0  0  0  0  0  0  0  0  0
    5.8022   -1.3697    0.5129 H   0  0  0  0  0  0  0  0  0  0  0  0
  1  2  1  0
  2  3  1  0
  3  4  1  0
  4  5  1  0
  5  6  1  0
  6  7  1  0
  8  7  1  1
  8  9  1  0
  9 10  1  6
 10 11  1  0
 11 12  1  0
 12 13  2  0
 13 14  1  0
 14 15  2  0
 15 16  1  0
 16 17  2  0
 15 18  1  0
  9  4  1  0
 13  8  1  0
 17 12  1  0
  4 19  1  0
 18 20  1  0
M  CHG  1   4   1
M  RAD  2   8   2   9   2
M  END
$$$$
