R-7-OH-DPAT
     RDKit          3D

 20 21  0  0  0  0  0  0  0  0999 V2000
   -5.0569    0.4111   -0.7692 C   0  0  0  0  0  0  0  0  0  0  0  0
   -3.5658    0.6933   -0.8798 C   0  0  0  0  0  0  0  0  0  0  0  0
   -3.0433    1.3539    0.3935 C   0  0  0  0  0  0  0  0  0  0  0  0
   -1.5692    1.7296    0.2927 N   0  0  0  0  0  0  0  0  0  0  0  0
   -1.3779    2.9373   -0.6308 C   0  0  0  0  0  0  0  0  0  0  0  0
   -0.7069    4.0956    0.1056 C   0  0  0  0  0  0  0  0  0  0  0  0
   -1.5898    4.7192    1.1781 C   0  0  0  0  0  0  0  0  0  0  0  0
   -0.5919    0.5637   -0.0070 C   0  0  0  0  0  3  0  0  0  0  0  0
   -0.8340   -0.6098    0.9523 C   0  0  0  0  0  0  0  0  0  0  0  0
    0.0677   -1.7914    0.5915 C   0  0  0  0  0  0  0  0  0  0  0  0
    1.5044   -1.4014    0.3745 C   0  0  0  0  0  0  0  0  0  0  0  0
    2.4872   -2.4043    0.3603 C   0  0  0  0  0  0  0  0  0  0  0  0
    3.8279   -2.0879    0.1362 C   0  0  0  0  0  0  0  0  0  0  0  0
    4.1861   -0.7648   -0.0788 C   0  0  0  0  0  0  0  0  0  0  0  0
    5.4802   -0.4003   -0.2971 O   0  0  0  0  0  0  0  0  0  0  0  0
    3.2270    0.2412   -0.0787 C   0  0  0  0  0  0  0  0  0  0  0  0
    1.8758   -0.0689    0.1338 C   0  0  0  0  0  0  0  0  0  0  0  0
    0.8655    1.0469    0.1582 C   0  0  0  0  0  0  0  0  0  0  0  0
   -1.3235    2.0384    1.2424 H   0  0  0  0  0  0  0  0  0  0  0  0
    6.0430   -1.1925   -0.2623 H   0  0  0  0  0  0  0  0  0  0  0  0
  1  2  1  0
  2  3  1  0
  3  4  1  0
  4  5  1  0
  5  6  1  0
  6  7  1  0
  8  4  1  1
  8  9  1  0
  9 10  1  0
 10 11  1  0
 11 12  1  0
 12 13  2  0
 13 14  1  0
 14 15  1  0
 14 16  2  0
 16 17  1  0
 17 18  1  0
 18  8  1  0
 17 11  2  0
  4 19  1  0
 15 20  1  0
M  CHG  1   4   1
M  RAD  1   8   2
M  END
$$$$
