dopamine
     RDKit          3D

 16 16  0  0  0  0  0  0  0  0999 V2000
   -2.6860   -0.7367    0.2922 N   0  0  0  0  0  0  0  0  0  0  0  0
   -1.2351   -0.7526    0.6164 C   0  0  0  0  0  0  0  0  0  0  0  0
   -0.4170   -0.9665   -0.6553 C   0  0  0  0  0  0  0  0  0  0  0  0
    1.0588   -0.9484   -0.3588 C   0  0  0  0  0  0  0  0  0  0  0  0
    1.7938   -2.1440   -0.2785 C   0  0  0  0  0  0  0  0  0  0  0  0
    3.1619   -2.1241    0.0190 C   0  0  0  0  0  0  0  0  0  0  0  0
    3.7917   -0.9067    0.2412 C   0  0  0  0  0  0  0  0  0  0  0  0
    5.1215   -0.8184    0.5384 O   0  0  0  0  0  0  0  0  0  0  0  0
    3.0686    0.2784    0.1647 C   0  0  0  0  0  0  0  0  0  0  0  0
    3.6843    1.4752    0.3878 O   0  0  0  0  0  0  0  0  0  0  0  0
    1.7138    0.2711   -0.1364 C   0  0  0  0  0  0  0  0  0  0  0  0
   -3.2470   -0.5921    1.1426 H   0  0  0  0  0  0  0  0  0  0  0  0
   -2.9216    0.0246   -0.3590 H   0  0  0  0  0  0  0  0  0  0  0  0
   -2.9954   -1.6216   -0.1311 H   0  0  0  0  0  0  0  0  0  0  0  0
    5.5091   -1.7110    0.5174 H   0  0  0  0  0  0  0  0  0  0  0  0
    4.6221    1.2477    0.5566 H   0  0  0  0  0  0  0  0  0  0  0  0
  1  2  1  0
  2  3  1  0
  3  4  1  0
  4  5  1  0
  5  6  2  0
  6  7  1  0
  7  8  1  0
  7  9  2  0
  9 10  1  0
  9 11  1  0
 11  4  2  0
  1 12  1  0
  1 13  1  0
  1 14  1  0
  8 15  1  0
 10 16  1  0
M  CHG  1   1   1
M  END
$$$$
