rotigotine
     RDKit          3D

 24 26  0  0  0  0  0  0  0  0999 V2000
   -0.0749    5.2104    0.2246 C   0  0  0  0  0  0  0  0  0  0  0  0
   -0.3162    3.9298   -0.5588 C   0  0  0  0  0  0  0  0  0  0  0  0
   -1.0517    2.8979    0.2906 C   0  0  0  0  0  0  0  0  0  0  0  0
   -1.2745    1.6162   -0.5233 N   0  0  0  0  0  0  0  0  0  0  0  0
   -2.7676    1.3101   -0.6444 C   0  0  0  0  0  0  0  0  0  0  0  0
   -3.3836    0.7960    0.6628 C   0  0  0  0  0  0  0  0  0  0  0  0
   -4.8746    0.7025    0.5482 C   0  0  0  0  0  0  0  0  0  0  0  0
   -5.6474   -0.4043    0.2590 C   0  0  0  0  0  0  0  0  0  0  0  0
   -7.0385   -0.0962    0.2279 C   0  0  0  0  0  0  0  0  0  0  0  0
   -7.2810    1.2312    0.5019 C   0  0  0  0  0  0  0  0  0  0  0  0
   -5.8388    2.0982    0.7963 S   0  0  0  0  0  0  0  0  0  0  0  0
   -0.3741    0.4377   -0.0793 C   0  0  0  0  0  3  0  0  0  0  0  0
   -0.6380   -0.8031   -0.9415 C   0  0  0  0  0  0  0  0  0  0  0  0
    0.1853   -1.9874   -0.4342 C   0  0  0  0  0  0  0  0  0  0  0  0
    1.6313   -1.6490   -0.1928 C   0  0  0  0  0  0  0  0  0  0  0  0
    2.5580   -2.6932   -0.0531 C   0  0  0  0  0  0  0  0  0  0  0  0
    3.9045   -2.4228    0.1912 C   0  0  0  0  0  0  0  0  0  0  0  0
    4.3420   -1.1061    0.3030 C   0  0  0  0  0  0  0  0  0  0  0  0
    3.4238   -0.0680    0.1751 C   0  0  0  0  0  0  0  0  0  0  0  0
    3.8350    1.2325    0.2694 O   0  0  0  0  0  0  0  0  0  0  0  0
    2.0648   -0.3201   -0.0560 C   0  0  0  0  0  0  0  0  0  0  0  0
    1.1091    0.8334   -0.2181 C   0  0  0  0  0  0  0  0  0  0  0  0
   -0.9834    1.8291   -1.4877 H   0  0  0  0  0  0  0  0  0  0  0  0
    4.7981    1.2415    0.4154 H   0  0  0  0  0  0  0  0  0  0  0  0
  1  2  1  0
  2  3  1  0
  3  4  1  0
  4  5  1  0
  5  6  1  0
  6  7  1  0
  7  8  2  0
  8  9  1  0
  9 10  2  0
 10 11  1  0
 12  4  1  6
 12 13  1  0
 13 14  1  0
 14 15  1  0
 15 16  1  0
 16 17  2  0
 17 18  1  0
 18 19  2  0
 19 20  1  0
 19 21  1  0
 21 22  1  0
 11  7  1  0
 22 12  1  0
 21 15  2  0
  4 23  1  0
 20 24  1  0
M  CHG  1   4   1
M  RAD  1  12   2
M  END
$$$$
