rotigotine
     RDKit          3D

 24 26  0  0  0  0  0  0  0  0999 V2000
   -3.3226   -3.0734   -0.1184 C   0  0  0  0  0  0  0  0  0  0  0  0
   -2.9921   -2.1183   -1.2560 C   0  0  0  0  0  0  0  0  0  0  0  0
   -3.2887   -0.6555   -0.9399 C   0  0  0  0  0  0  0  0  0  0  0  0
   -2.4434   -0.0909    0.1977 N   0  0  0  0  0  0  0  0  0  0  0  0
   -3.1327    1.1082    0.8570 C   0  0  0  0  0  0  0  0  0  0  0  0
   -3.5705    2.1993   -0.1312 C   0  0  0  0  0  0  0  0  0  0  0  0
   -3.9929    3.4401    0.5964 C   0  0  0  0  0  0  0  0  0  0  0  0
   -5.2685    3.8432    0.9373 C   0  0  0  0  0  0  0  0  0  0  0  0
   -5.2723    5.0847    1.6372 C   0  0  0  0  0  0  0  0  0  0  0  0
   -4.0025    5.5903    1.8012 C   0  0  0  0  0  0  0  0  0  0  0  0
   -2.8152    4.5750    1.1106 S   0  0  0  0  0  0  0  0  0  0  0  0
   -0.9342    0.0460   -0.1623 C   0  0  0  0  0  3  0  0  0  0  0  0
   -0.2927    1.3564    0.3012 C   0  0  0  0  0  0  0  0  0  0  0  0
    1.1426    1.4532   -0.2201 C   0  0  0  0  0  0  0  0  0  0  0  0
    1.9515    0.2027    0.0108 C   0  0  0  0  0  0  0  0  0  0  0  0
    3.3458    0.2412   -0.1294 C   0  0  0  0  0  0  0  0  0  0  0  0
    3.9326    1.4287   -0.4647 O   0  0  0  0  0  0  0  0  0  0  0  0
    4.1259   -0.8956    0.0614 C   0  0  0  0  0  0  0  0  0  0  0  0
    3.5112   -2.1000    0.3919 C   0  0  0  0  0  0  0  0  0  0  0  0
    2.1241   -2.1642    0.5206 C   0  0  0  0  0  0  0  0  0  0  0  0
    1.3333   -1.0222    0.3166 C   0  0  0  0  0  0  0  0  0  0  0  0
   -0.1602   -1.1252    0.4858 C   0  0  0  0  0  0  0  0  0  0  0  0
   -2.4793   -0.7933    0.9464 H   0  0  0  0  0  0  0  0  0  0  0  0
    4.8982    1.3108   -0.4819 H   0  0  0  0  0  0  0  0  0  0  0  0
  1  2  1  0
  2  3  1  0
  3  4  1  0
  4  5  1  0
  5  6  1  0
  6  7  1  0
  7  8  2  0
  8  9  1  0
  9 10  2  0
 10 11  1  0
 12  4  1  1
 12 13  1  0
 13 14  1  0
 14 15  1  0
 15 16  1  0
 16 17  1  0
 16 18  2  0
 18 19  1  0
 19 20  2  0
 20 21  1  0
 21 22  1  0
 11  7  1  0
 22 12  1  0
 21 15  2  0
  4 23  1  0
 17 24  1  0
M  CHG  1   4   1
M  RAD  1  12   2
M  END
$$$$
