PD128907
     RDKit          3D

 20 22  0  0  0  0  0  0  0  0999 V2000
   -4.7717    2.0199   -0.7762 C   0  0  0  0  0  0  0  0  0  0  0  0
   -4.4340    1.9191    0.7039 C   0  0  0  0  0  0  0  0  0  0  0  0
   -3.2234    1.0355    1.0052 C   0  0  0  0  0  0  0  0  0  0  0  0
   -1.9604    1.4915    0.2984 N   0  0  0  0  0  0  0  0  0  0  0  0
   -1.5255    2.8980    0.7522 C   0  0  0  0  0  0  0  0  0  0  0  0
   -0.2154    3.3072    0.0692 C   0  0  0  0  0  0  0  0  0  0  0  0
    0.8204    2.3566    0.3252 O   0  0  0  0  0  0  0  0  0  0  0  0
    0.4834    1.0708   -0.2086 C   0  0  0  0  0  3  0  0  0  0  0  0
    1.6163    0.0960   -0.0645 C   0  0  0  0  0  0  0  0  0  0  0  0
    2.9506    0.5066   -0.1915 C   0  0  0  0  0  0  0  0  0  0  0  0
    3.9814   -0.4216   -0.0836 C   0  0  0  0  0  0  0  0  0  0  0  0
    5.2571    0.0379   -0.2105 O   0  0  0  0  0  0  0  0  0  0  0  0
    3.7114   -1.7653    0.1436 C   0  0  0  0  0  0  0  0  0  0  0  0
    2.3854   -2.1846    0.2574 C   0  0  0  0  0  0  0  0  0  0  0  0
    1.3433   -1.2626    0.1419 C   0  0  0  0  0  0  0  0  0  0  0  0
    0.0802   -1.7742    0.2735 O   0  0  0  0  0  0  0  0  0  0  0  0
   -0.9987   -0.8883   -0.0394 C   0  0  0  0  0  0  0  0  0  0  0  0
   -0.7641    0.5183    0.5165 C   0  0  0  0  0  3  0  0  0  0  0  0
   -2.1469    1.5310   -0.7123 H   0  0  0  0  0  0  0  0  0  0  0  0
    5.8765   -0.7048   -0.1091 H   0  0  0  0  0  0  0  0  0  0  0  0
  1  2  1  0
  2  3  1  0
  3  4  1  0
  4  5  1  0
  5  6  1  0
  6  7  1  0
  8  7  1  1
  8  9  1  0
  9 10  1  0
 10 11  2  0
 11 12  1  0
 11 13  1  0
 13 14  2  0
 14 15  1  0
 15 16  1  0
 16 17  1  0
 18 17  1  6
 18  4  1  0
 18  8  1  0
 15  9  2  0
  4 19  1  0
 12 20  1  0
M  CHG  1   4   1
M  RAD  2   8   2  18   2
M  END
$$$$
