quinpirole
     RDKit          3D

 18 20  0  0  0  0  0  0  0  0999 V2000
   -3.4106   -4.0097   -0.0356 C   0  0  0  0  0  0  0  0  0  0  0  0
   -2.8513   -2.7099    0.5211 C   0  0  0  0  0  0  0  0  0  0  0  0
   -2.6194   -1.6918   -0.5902 C   0  0  0  0  0  0  0  0  0  0  0  0
   -2.0566   -0.3988    0.0017 N   0  0  0  0  0  0  0  0  0  0  0  0
   -2.9181    0.7757   -0.4216 C   0  0  0  0  0  0  0  0  0  0  0  0
   -2.4517    2.0440    0.2676 C   0  0  0  0  0  0  0  0  0  0  0  0
   -0.9992    2.3445   -0.0620 C   0  0  0  0  0  0  0  0  0  0  0  0
   -0.0962    1.1731    0.3279 C   0  0  0  0  0  3  0  0  0  0  0  0
    1.3764    1.5010   -0.0437 C   0  0  0  0  0  0  0  0  0  0  0  0
    2.1919    0.2726    0.0758 C   0  0  0  0  0  0  0  0  0  0  0  0
    3.5547    0.2032    0.0866 N   0  0  0  0  0  0  0  0  0  0  0  0
    4.0012   -1.0608    0.1826 N   0  0  0  0  0  0  0  0  0  0  0  0
    2.8947   -1.8051    0.2433 C   0  0  0  0  0  0  0  0  0  0  0  0
    1.7325   -1.0196    0.1749 C   0  0  0  0  0  0  0  0  0  0  0  0
    0.2941   -1.3656    0.2117 C   0  0  0  0  0  0  0  0  0  0  0  0
   -0.5634   -0.1732   -0.3125 C   0  0  0  0  0  3  0  0  0  0  0  0
   -2.1402   -0.4594    1.0264 H   0  0  0  0  0  0  0  0  0  0  0  0
    4.2390    0.9528    0.0297 H   0  0  0  0  0  0  0  0  0  0  0  0
  1  2  1  0
  2  3  1  0
  3  4  1  0
  4  5  1  0
  5  6  1  0
  6  7  1  0
  8  7  1  6
  8  9  1  0
  9 10  1  0
 10 11  1  0
 11 12  1  0
 12 13  2  0
 13 14  1  0
 14 15  1  0
 16 15  1  1
 16  4  1  0
 16  8  1  0
 14 10  2  0
  4 17  1  0
 11 18  1  0
M  CHG  1   4   1
M  RAD  2   8   2  16   2
M  END
$$$$
