quinpirole
     RDKit          3D

 18 20  0  0  0  0  0  0  0  0999 V2000
   -2.9411   -3.6402   -2.1884 C   0  0  0  0  0  0  0  0  0  0  0  0
   -2.4695   -2.2408   -1.8200 C   0  0  0  0  0  0  0  0  0  0  0  0
   -2.4943   -2.0424   -0.3077 C   0  0  0  0  0  0  0  0  0  0  0  0
   -2.0200   -0.6605    0.1191 N   0  0  0  0  0  0  0  0  0  0  0  0
   -3.0075    0.4177   -0.2824 C   0  0  0  0  0  0  0  0  0  0  0  0
   -2.6499    1.7203    0.4118 C   0  0  0  0  0  0  0  0  0  0  0  0
   -1.2372    2.1619    0.0588 C   0  0  0  0  0  0  0  0  0  0  0  0
   -0.2130    1.0749    0.3982 C   0  0  0  0  0  3  0  0  0  0  0  0
    1.2092    1.5485   -0.0074 C   0  0  0  0  0  0  0  0  0  0  0  0
    2.1403    0.4018    0.0687 C   0  0  0  0  0  0  0  0  0  0  0  0
    3.5035    0.4645    0.0583 N   0  0  0  0  0  0  0  0  0  0  0  0
    4.0715   -0.7520    0.1179 N   0  0  0  0  0  0  0  0  0  0  0  0
    3.0432   -1.6012    0.1733 C   0  0  0  0  0  0  0  0  0  0  0  0
    1.8094   -0.9308    0.1412 C   0  0  0  0  0  0  0  0  0  0  0  0
    0.4131   -1.4183    0.1876 C   0  0  0  0  0  0  0  0  0  0  0  0
   -0.5719   -0.2968   -0.2599 C   0  0  0  0  0  3  0  0  0  0  0  0
   -2.0410   -0.6871    1.1485 H   0  0  0  0  0  0  0  0  0  0  0  0
    4.1112    1.2781    0.0099 H   0  0  0  0  0  0  0  0  0  0  0  0
  1  2  1  0
  2  3  1  0
  3  4  1  0
  4  5  1  0
  5  6  1  0
  6  7  1  0
  8  7  1  6
  8  9  1  0
  9 10  1  0
 10 11  1  0
 11 12  1  0
 12 13  2  0
 13 14  1  0
 14 15  1  0
 16 15  1  1
 16  4  1  0
 16  8  1  0
 14 10  2  0
  4 17  1  0
 11 18  1  0
M  CHG  1   4   1
M  RAD  2   8   2  16   2
M  END
$$$$
