rotigotine
     RDKit          3D

 24 26  0  0  0  0  0  0  0  0999 V2000
   -4.4072   -0.6883    3.5709 C   0  0  0  0  0  0  0  0  0  0  0  0
   -4.1090   -0.4037    2.1070 C   0  0  0  0  0  0  0  0  0  0  0  0
   -2.7037   -0.8723    1.7331 C   0  0  0  0  0  0  0  0  0  0  0  0
   -2.4092   -0.5405    0.2789 N   0  0  0  0  0  0  0  0  0  0  0  0
   -3.0587   -1.5352   -0.6913 C   0  0  0  0  0  0  0  0  0  0  0  0
   -3.4694   -0.8710   -2.0143 C   0  0  0  0  0  0  0  0  0  0  0  0
   -4.5006    0.2009   -1.8079 C   0  0  0  0  0  0  0  0  0  0  0  0
   -5.8736    0.0690   -1.7529 C   0  0  0  0  0  0  0  0  0  0  0  0
   -6.5258    1.3152   -1.5225 C   0  0  0  0  0  0  0  0  0  0  0  0
   -5.6317    2.3563   -1.4157 C   0  0  0  0  0  0  0  0  0  0  0  0
   -4.0165    1.8325   -1.5988 S   0  0  0  0  0  0  0  0  0  0  0  0
   -0.9319   -0.2707   -0.0475 C   0  0  0  0  0  3  0  0  0  0  0  0
   -0.5019    1.0743    0.5391 C   0  0  0  0  0  0  0  0  0  0  0  0
    0.8882    1.4369    0.0189 C   0  0  0  0  0  0  0  0  0  0  0  0
    1.8749    0.2954    0.0927 C   0  0  0  0  0  0  0  0  0  0  0  0
    3.2435    0.5578   -0.0659 C   0  0  0  0  0  0  0  0  0  0  0  0
    3.6369    1.8503   -0.2691 O   0  0  0  0  0  0  0  0  0  0  0  0
    4.1888   -0.4635   -0.0268 C   0  0  0  0  0  0  0  0  0  0  0  0
    3.7708   -1.7765    0.1695 C   0  0  0  0  0  0  0  0  0  0  0  0
    2.4135   -2.0640    0.3126 C   0  0  0  0  0  0  0  0  0  0  0  0
    1.4552   -1.0390    0.2594 C   0  0  0  0  0  0  0  0  0  0  0  0
   -0.0014   -1.3946    0.4350 C   0  0  0  0  0  0  0  0  0  0  0  0
   -2.8855    0.3587    0.1062 H   0  0  0  0  0  0  0  0  0  0  0  0
    4.6046    1.8777   -0.3677 H   0  0  0  0  0  0  0  0  0  0  0  0
  1  2  1  0
  2  3  1  0
  3  4  1  0
  4  5  1  0
  5  6  1  0
  6  7  1  0
  7  8  2  0
  8  9  1  0
  9 10  2  0
 10 11  1  0
 12  4  1  1
 12 13  1  0
 13 14  1  0
 14 15  1  0
 15 16  1  0
 16 17  1  0
 16 18  2  0
 18 19  1  0
 19 20  2  0
 20 21  1  0
 21 22  1  0
 11  7  1  0
 22 12  1  0
 21 15  2  0
  4 23  1  0
 17 24  1  0
M  CHG  1   4   1
M  RAD  1  12   2
M  END
$$$$
