dopamine
     RDKit          3D

 16 16  0  0  0  0  0  0  0  0999 V2000
   -2.6204   -0.9457   -0.2860 N   0  0  0  0  0  0  0  0  0  0  0  0
   -1.1634   -0.8869   -0.5761 C   0  0  0  0  0  0  0  0  0  0  0  0
   -0.3680   -0.9347    0.7268 C   0  0  0  0  0  0  0  0  0  0  0  0
    1.1107   -0.8380    0.4619 C   0  0  0  0  0  0  0  0  0  0  0  0
    1.9276   -1.9815    0.5006 C   0  0  0  0  0  0  0  0  0  0  0  0
    3.2988   -1.8905    0.2322 C   0  0  0  0  0  0  0  0  0  0  0  0
    3.8500   -0.6549   -0.0801 C   0  0  0  0  0  0  0  0  0  0  0  0
    5.1783   -0.4987   -0.3548 O   0  0  0  0  0  0  0  0  0  0  0  0
    3.0458    0.4786   -0.1214 C   0  0  0  0  0  0  0  0  0  0  0  0
    3.5844    1.6927   -0.4331 O   0  0  0  0  0  0  0  0  0  0  0  0
    1.6869    0.4015    0.1498 C   0  0  0  0  0  0  0  0  0  0  0  0
   -2.8803   -1.8114    0.2050 H   0  0  0  0  0  0  0  0  0  0  0  0
   -3.1663   -0.9131   -1.1577 H   0  0  0  0  0  0  0  0  0  0  0  0
   -2.9253   -0.1508    0.2920 H   0  0  0  0  0  0  0  0  0  0  0  0
    5.6251   -1.3568   -0.2487 H   0  0  0  0  0  0  0  0  0  0  0  0
    4.5398    1.5183   -0.5613 H   0  0  0  0  0  0  0  0  0  0  0  0
  1  2  1  0
  2  3  1  0
  3  4  1  0
  4  5  1  0
  5  6  2  0
  6  7  1  0
  7  8  1  0
  7  9  2  0
  9 10  1  0
  9 11  1  0
 11  4  2  0
  1 12  1  0
  1 13  1  0
  1 14  1  0
  8 15  1  0
 10 16  1  0
M  CHG  1   1   1
M  END
$$$$
