dopaminergic_consensus_pharmacophore
     RDKit          3D

 13  0  0  0  0  0  0  0  0  0999 V2000
    2.7139   -0.9055    0.1674 S   0  0  0  0  0  0  0  0  0  0  0  0
    2.3333   -1.4826   -3.2524 B   0  0  0  0  0  0  0  0  0  0  0  0
    3.0945   -0.3285    3.5872 B   0  0  0  0  0  0  0  0  0  0  0  0
    0.1055    0.6362    0.2641 Br  0  0  0  0  0  0  0  0  0  0  0  0
    5.0580   -0.5599   -0.2264 O   0  0  0  0  0  0  0  0  0  0  0  0
    5.0580   -0.5599   -0.2264 N   0  0  0  0  0  0  0  0  0  0  0  0
    6.2952    1.6173    1.6225 I   0  0  0  0  0  0  0  0  0  0  0  0
    5.5997    0.6223   -3.1184 I   0  0  0  0  0  0  0  0  0  0  0  0
    2.5314    2.8592   -2.7374 I   0  0  0  0  0  0  0  0  0  0  0  0
   -2.3978   -0.5886   -0.0414 N   0  0  0  0  0  0  0  0  0  0  0  0
    3.6708    1.2158   -0.3169 N   0  0  0  0  0  0  0  0  0  0  0  0
    6.9398   -2.9360   -0.0367 F   0  0  0  0  0  0  0  0  0  0  0  0
   -2.3978   -0.5886   -0.0414 Fe  0  0  0  0  0 15  0  0  0  0  0  0
M  END
>  <features>  (1) 
Aromatic(d=0.00), AromaticProj(d=0.00), AromaticProj(d=0.00), Hydrophobe(d=0.00), Acceptor(d=0.00), Donor(d=0.00), AcceptorProj(d=0.00), AcceptorProj(d=0.00), AcceptorProj(d=0.00), Donor(d=0.00), Donor(d=0.00), DonorProj(d=0.00), PosIonizable(d=0.00)

>  <ligand_counts>  (1) 
Aromatic=6, AromaticProj=6, AromaticProj=6, Hydrophobe=6, Acceptor=5, Donor=5, AcceptorProj=4, AcceptorProj=4, AcceptorProj=4, Donor=4, Donor=4, DonorProj=4, PosIonizable=4

$$$$
