dopaminergic_consensus_pharmacophore
     RDKit          3D

 10  0  0  0  0  0  0  0  0  0999 V2000
    2.7394   -0.7108    0.1091 S   0  0  0  0  0  0  0  0  0  0  0  0
    2.4105   -1.1143   -3.3420 B   0  0  0  0  0  0  0  0  0  0  0  0
    3.0683   -0.3073    3.5601 B   0  0  0  0  0  0  0  0  0  0  0  0
    0.7794    0.2728    0.2956 Br  0  0  0  0  0  0  0  0  0  0  0  0
    5.0382   -0.1638   -0.2390 O   0  0  0  0  0  0  0  0  0  0  0  0
    5.0382   -0.1638   -0.2390 N   0  0  0  0  0  0  0  0  0  0  0  0
    6.0607    2.0264    1.7133 I   0  0  0  0  0  0  0  0  0  0  0  0
    5.5034    1.1715   -3.0714 I   0  0  0  0  0  0  0  0  0  0  0  0
    3.5006    1.5329   -0.2058 N   0  0  0  0  0  0  0  0  0  0  0  0
    7.0890   -2.3922   -0.1069 F   0  0  0  0  0  0  0  0  0  0  0  0
M  END
>  <features>  (1) 
Aromatic(d=0.00), AromaticProj(d=0.00), AromaticProj(d=0.00), Hydrophobe(d=0.00), Acceptor(d=0.00), Donor(d=0.00), AcceptorProj(d=0.00), AcceptorProj(d=0.00), Donor(d=0.00), DonorProj(d=0.00)

>  <ligand_counts>  (1) 
Aromatic=6, AromaticProj=6, AromaticProj=6, Hydrophobe=6, Acceptor=5, Donor=5, AcceptorProj=4, AcceptorProj=4, Donor=4, DonorProj=4

$$$$
