None
     MoleculeKit    3D
 Structure written by MoleculeKit.
 12  0  0  0  0  0  0  0  0  0999 V2000
    3.5869   -0.7849    0.0801 N   0  0  0  0  0  0  0  0  0  0  0  0
   -2.8506   -0.7416   -2.0997 N   0  0  0  0  0  0  0  0  0  0  0  0
   -4.1392    0.3799    0.1040 N   0  0  0  0  0  0  0  0  0  0  0  0
   -2.8506   -0.7416   -2.0997 O   0  0  0  0  0  0  0  0  0  0  0  0
   -4.1392    0.3799    0.1040 O   0  0  0  0  0  0  0  0  0  0  0  0
    3.5869   -0.7849    0.0801 Fe  0  0  0  0  0  0  0  0  0  0  0  0
   -1.3934    0.4189   -0.0765 S   0  0  0  0  0  0  0  0  0  0  0  0
   -0.6466    0.9643    0.9637 Br  0  0  0  0  0  0  0  0  0  0  0  0
   -2.0400    0.9159    1.0613 Br  0  0  0  0  0  0  0  0  0  0  0  0
   -0.7584   -0.0807   -1.2184 Br  0  0  0  0  0  0  0  0  0  0  0  0
    0.0057    0.4736   -0.1801 Br  0  0  0  0  0  0  0  0  0  0  0  0
    1.5077    0.4987   -0.2756 Br  0  0  0  0  0  0  0  0  0  0  0  0
M  END
$$$$
None
     MoleculeKit    3D
 Structure written by MoleculeKit.
 13  0  0  0  0  0  0  0  0  0999 V2000
    3.5217   -0.6967    0.2520 N   0  0  0  0  0  0  0  0  0  0  0  0
   -3.5337   -0.3426   -1.7598 N   0  0  0  0  0  0  0  0  0  0  0  0
    1.5755   -1.0844   -1.6794 O   0  0  0  0  0  0  0  0  0  0  0  0
    0.4676    1.1952    1.7057 O   0  0  0  0  0  0  0  0  0  0  0  0
   -3.5337   -0.3426   -1.7598 O   0  0  0  0  0  0  0  0  0  0  0  0
    3.5217   -0.6967    0.2520 Fe  0  0  0  0  0  0  0  0  0  0  0  0
   -1.4846    0.4015   -0.0852 S   0  0  0  0  0  0  0  0  0  0  0  0
    5.4231   -0.8138    3.5889 Br  0  0  0  0  0  0  0  0  0  0  0  0
    4.3829   -1.1729    2.5384 Br  0  0  0  0  0  0  0  0  0  0  0  0
   -0.1480    0.1633   -0.4317 Br  0  0  0  0  0  0  0  0  0  0  0  0
   -1.1764   -0.2166   -1.3058 Br  0  0  0  0  0  0  0  0  0  0  0  0
   -2.8176    0.6306    0.2605 Br  0  0  0  0  0  0  0  0  0  0  0  0
   -1.7979    1.0215    1.1284 Br  0  0  0  0  0  0  0  0  0  0  0  0
M  END
$$$$
