dopamine_H+
     RDKit          3D

 16 16  0  0  0  0  0  0  0  0999 V2000
   -0.5122   -0.9284    1.1602 C   0  0  0  0  0  0  0  0  0  0  0  0
   -1.8797   -1.1944    1.2397 C   0  0  0  0  0  0  0  0  0  0  0  0
   -2.7725   -0.3598    0.5869 C   0  0  0  0  0  0  0  0  0  0  0  0
   -2.3217    0.7394   -0.1369 C   0  0  0  0  0  0  0  0  0  0  0  0
   -0.9597    1.0124   -0.2284 C   0  0  0  0  0  0  0  0  0  0  0  0
   -0.0394    0.1719    0.4221 C   0  0  0  0  0  0  0  0  0  0  0  0
    1.4423    0.4211    0.3105 C   0  0  0  0  0  0  0  0  0  0  0  0
    2.0716   -0.4830   -0.7478 C   0  0  0  0  0  0  0  0  0  0  0  0
    3.5367   -0.2407   -0.8212 N   0  0  0  0  0  0  0  0  0  0  0  0
   -3.2620    1.5218   -0.7452 O   0  0  0  0  0  0  0  0  0  0  0  0
   -4.1071   -0.6289    0.6671 O   0  0  0  0  0  0  0  0  0  0  0  0
    4.0030   -0.4432    0.0736 H   0  0  0  0  0  0  0  0  0  0  0  0
    3.7547    0.7314   -1.0774 H   0  0  0  0  0  0  0  0  0  0  0  0
    3.9703   -0.8465   -1.5314 H   0  0  0  0  0  0  0  0  0  0  0  0
   -2.8341    2.3086   -1.1228 H   0  0  0  0  0  0  0  0  0  0  0  0
   -4.5439    0.0817    0.1561 H   0  0  0  0  0  0  0  0  0  0  0  0
  1  2  2  0
  2  3  1  0
  3  4  2  0
  4  5  1  0
  5  6  2  0
  6  7  1  0
  7  8  1  0
  8  9  1  0
  4 10  1  0
  3 11  1  0
  6  1  1  0
  9 12  1  0
  9 13  1  0
  9 14  1  0
 10 15  1  0
 11 16  1  0
M  CHG  1   9   1
M  END
$$$$
