dopamine_H+
     RDKit          3D

 16 16  0  0  0  0  0  0  0  0999 V2000
   -2.2703   -0.3315    1.5762 C   0  0  0  0  0  0  0  0  0  0  0  0
   -0.9188   -0.6319    1.3694 C   0  0  0  0  0  0  0  0  0  0  0  0
   -0.2914   -0.1811    0.2159 C   0  0  0  0  0  0  0  0  0  0  0  0
   -0.9986    0.5699   -0.7162 C   0  0  0  0  0  0  0  0  0  0  0  0
   -2.3329    0.8911   -0.5126 C   0  0  0  0  0  0  0  0  0  0  0  0
   -2.9890    0.4280    0.6363 C   0  0  0  0  0  0  0  0  0  0  0  0
   -4.4584    0.7080    0.8325 C   0  0  0  0  0  0  0  0  0  0  0  0
   -5.3367   -0.4723    0.4099 C   0  0  0  0  0  0  0  0  0  0  0  0
   -5.1275   -0.8091   -1.0245 N   0  0  0  0  0  0  0  0  0  0  0  0
   -0.3913    0.9996   -1.8590 O   0  0  0  0  0  0  0  0  0  0  0  0
    1.0195   -0.4495   -0.0526 O   0  0  0  0  0  0  0  0  0  0  0  0
   -4.1492   -1.0868   -1.1986 H   0  0  0  0  0  0  0  0  0  0  0  0
   -5.7220   -1.5933   -1.3208 H   0  0  0  0  0  0  0  0  0  0  0  0
   -5.3281   -0.0122   -1.6423 H   0  0  0  0  0  0  0  0  0  0  0  0
    0.5443    0.7204   -1.7703 H   0  0  0  0  0  0  0  0  0  0  0  0
    1.4176   -0.8921    0.7181 H   0  0  0  0  0  0  0  0  0  0  0  0
  1  2  2  0
  2  3  1  0
  3  4  2  0
  4  5  1  0
  5  6  2  0
  6  7  1  0
  7  8  1  0
  8  9  1  0
  4 10  1  0
  3 11  1  0
  6  1  1  0
  9 12  1  0
  9 13  1  0
  9 14  1  0
 10 15  1  0
 11 16  1  0
M  CHG  1   9   1
M  END
$$$$
