PD128907_H+
     RDKit          3D

 20 22  0  0  0  0  0  0  0  0999 V2000
    5.4221   -0.8139    3.5872 C   0  0  0  0  0  0  0  0  0  0  0  0
    4.3824   -1.1728    2.5372 C   0  0  0  0  0  0  0  0  0  0  0  0
    4.5709   -0.3395    1.2730 C   0  0  0  0  0  0  0  0  0  0  0  0
    3.5212   -0.6966    0.2520 N   0  0  0  0  0  0  0  0  0  0  0  0
    3.9265   -0.3656   -1.1773 C   0  0  0  0  0  0  0  0  0  0  0  0
    2.9303   -1.0224   -2.1613 C   0  0  0  0  0  0  0  0  0  0  0  0
    1.5759   -1.0841   -1.6783 O   0  0  0  0  0  0  0  0  0  0  0  0
    1.3004   -0.0127   -0.7751 C   0  0  0  0  0  3  0  0  0  0  0  0
    2.0624   -0.2698    0.5443 C   0  0  0  0  0  3  0  0  0  0  0  0
    1.8518    0.9921    1.3812 C   0  0  0  0  0  0  0  0  0  0  0  0
    0.4671    1.1948    1.7049 O   0  0  0  0  0  0  0  0  0  0  0  0
   -0.4667    0.7937    0.7834 C   0  0  0  0  0  0  0  0  0  0  0  0
   -0.1478    0.1633   -0.4314 C   0  0  0  0  0  0  0  0  0  0  0  0
   -1.1756   -0.2165   -1.3051 C   0  0  0  0  0  0  0  0  0  0  0  0
   -2.5000    0.0166   -0.9461 C   0  0  0  0  0  0  0  0  0  0  0  0
   -2.8168    0.6305    0.2604 C   0  0  0  0  0  0  0  0  0  0  0  0
   -1.7976    1.0212    1.1278 C   0  0  0  0  0  0  0  0  0  0  0  0
   -3.5321   -0.3424   -1.7589 O   0  0  0  0  0  0  0  0  0  0  0  0
    3.4712   -1.7270    0.2490 H   0  0  0  0  0  0  0  0  0  0  0  0
   -3.1857   -0.7633   -2.5626 H   0  0  0  0  0  0  0  0  0  0  0  0
  1  2  1  0
  2  3  1  0
  3  4  1  0
  4  5  1  0
  5  6  1  0
  6  7  1  0
  8  7  1  6
  8  9  1  0
  9 10  1  1
 10 11  1  0
 11 12  1  0
 12 13  2  0
 13 14  1  0
 14 15  2  0
 15 16  1  0
 16 17  2  0
 15 18  1  0
  9  4  1  0
 13  8  1  0
 17 12  1  0
  4 19  1  0
 18 20  1  0
M  CHG  1   4   1
M  RAD  2   8   2   9   2
M  END
$$$$
