PD128907_H+
     RDKit          3D

 20 22  0  0  0  0  0  0  0  0999 V2000
    5.8484   -1.8765   -1.8010 C   0  0  0  0  0  0  0  0  0  0  0  0
    5.8399   -1.5954   -0.3058 C   0  0  0  0  0  0  0  0  0  0  0  0
    4.4487   -1.6185    0.3269 C   0  0  0  0  0  0  0  0  0  0  0  0
    3.4938   -0.6318   -0.2938 N   0  0  0  0  0  0  0  0  0  0  0  0
    3.8901    0.8323   -0.1680 C   0  0  0  0  0  0  0  0  0  0  0  0
    2.9461    1.7038   -1.0288 C   0  0  0  0  0  0  0  0  0  0  0  0
    1.5862    1.2401   -1.0780 O   0  0  0  0  0  0  0  0  0  0  0  0
    1.2446    0.5027    0.0956 C   0  0  0  0  0  3  0  0  0  0  0  0
    1.9971   -0.8448    0.0659 C   0  0  0  0  0  3  0  0  0  0  0  0
    1.6913   -1.5155    1.4057 C   0  0  0  0  0  0  0  0  0  0  0  0
    0.2916   -1.7929    1.5616 O   0  0  0  0  0  0  0  0  0  0  0  0
   -0.5973   -0.9153    0.9957 C   0  0  0  0  0  0  0  0  0  0  0  0
   -0.2177    0.2038    0.2359 C   0  0  0  0  0  0  0  0  0  0  0  0
   -1.2050    1.0379   -0.3070 C   0  0  0  0  0  0  0  0  0  0  0  0
   -2.5477    0.7324   -0.1044 C   0  0  0  0  0  0  0  0  0  0  0  0
   -2.9235   -0.3810    0.6380 C   0  0  0  0  0  0  0  0  0  0  0  0
   -1.9459   -1.2072    1.1905 C   0  0  0  0  0  0  0  0  0  0  0  0
   -3.5407    1.5091   -0.6196 O   0  0  0  0  0  0  0  0  0  0  0  0
    3.5074   -0.8132   -1.3079 H   0  0  0  0  0  0  0  0  0  0  0  0
   -3.1544    2.2458   -1.1207 H   0  0  0  0  0  0  0  0  0  0  0  0
  1  2  1  0
  2  3  1  0
  3  4  1  0
  4  5  1  0
  5  6  1  0
  6  7  1  0
  8  7  1  6
  8  9  1  0
  9 10  1  1
 10 11  1  0
 11 12  1  0
 12 13  2  0
 13 14  1  0
 14 15  2  0
 15 16  1  0
 16 17  2  0
 15 18  1  0
  9  4  1  0
 13  8  1  0
 17 12  1  0
  4 19  1  0
 18 20  1  0
M  CHG  1   4   1
M  RAD  2   8   2   9   2
M  END
$$$$
