PD128907_H+
     RDKit          3D

 20 22  0  0  0  0  0  0  0  0999 V2000
    3.8904   -3.4605   -0.9667 C   0  0  0  0  0  0  0  0  0  0  0  0
    4.9450   -2.3693   -1.0196 C   0  0  0  0  0  0  0  0  0  0  0  0
    4.6508   -1.1365   -0.1665 C   0  0  0  0  0  0  0  0  0  0  0  0
    3.4918   -0.3366   -0.7147 N   0  0  0  0  0  0  0  0  0  0  0  0
    3.7638    1.1660   -0.7331 C   0  0  0  0  0  0  0  0  0  0  0  0
    2.6678    1.8904   -1.5444 C   0  0  0  0  0  0  0  0  0  0  0  0
    1.3596    1.3135   -1.4168 O   0  0  0  0  0  0  0  0  0  0  0  0
    1.2029    0.6379   -0.1688 C   0  0  0  0  0  3  0  0  0  0  0  0
    2.0592   -0.6481   -0.2011 C   0  0  0  0  0  3  0  0  0  0  0  0
    1.9242   -1.2665    1.1896 C   0  0  0  0  0  0  0  0  0  0  0  0
    0.5709   -1.6457    1.4855 O   0  0  0  0  0  0  0  0  0  0  0  0
   -0.4307   -0.8575    0.9812 C   0  0  0  0  0  0  0  0  0  0  0  0
   -0.2092    0.2445    0.1422 C   0  0  0  0  0  0  0  0  0  0  0  0
   -1.3041    0.9831   -0.3208 C   0  0  0  0  0  0  0  0  0  0  0  0
   -2.5952    0.6060    0.0344 C   0  0  0  0  0  0  0  0  0  0  0  0
   -2.8195   -0.4942    0.8543 C   0  0  0  0  0  0  0  0  0  0  0  0
   -1.7305   -1.2273    1.3287 C   0  0  0  0  0  0  0  0  0  0  0  0
   -3.6241    1.3568   -0.4479 O   0  0  0  0  0  0  0  0  0  0  0  0
    3.4330   -0.5678   -1.7179 H   0  0  0  0  0  0  0  0  0  0  0  0
   -4.4657    0.9913   -0.1259 H   0  0  0  0  0  0  0  0  0  0  0  0
  1  2  1  0
  2  3  1  0
  3  4  1  0
  4  5  1  0
  5  6  1  0
  6  7  1  0
  8  7  1  6
  8  9  1  0
  9 10  1  1
 10 11  1  0
 11 12  1  0
 12 13  2  0
 13 14  1  0
 14 15  2  0
 15 16  1  0
 16 17  2  0
 15 18  1  0
  9  4  1  0
 13  8  1  0
 17 12  1  0
  4 19  1  0
 18 20  1  0
M  CHG  1   4   1
M  RAD  2   8   2   9   2
M  END
$$$$
