dopamine_H+_0
     RDKit          3D

 16 16  0  0  0  0  0  0  0  0999 V2000
    3.5869   -0.7849    0.0801 N   0  0  0  0  0  0  0  0  0  0  0  0
    2.1054   -0.8242    0.1974 C   0  0  0  0  0  0  0  0  0  0  0  0
    1.5077    0.4987   -0.2756 C   0  0  0  0  0  0  0  0  0  0  0  0
    0.0057    0.4736   -0.1801 C   0  0  0  0  0  0  0  0  0  0  0  0
   -0.6466    0.9643    0.9637 C   0  0  0  0  0  0  0  0  0  0  0  0
   -2.0400    0.9159    1.0613 C   0  0  0  0  0  0  0  0  0  0  0  0
   -2.7791    0.3783    0.0179 C   0  0  0  0  0  0  0  0  0  0  0  0
   -4.1392    0.3799    0.1040 O   0  0  0  0  0  0  0  0  0  0  0  0
   -2.1420   -0.1380   -1.1033 C   0  0  0  0  0  0  0  0  0  0  0  0
   -2.8506   -0.7416   -2.0997 O   0  0  0  0  0  0  0  0  0  0  0  0
   -0.7584   -0.0807   -1.2184 C   0  0  0  0  0  0  0  0  0  0  0  0
    4.0056   -0.7738    1.0211 H   0  0  0  0  0  0  0  0  0  0  0  0
    3.9130   -1.6175   -0.4310 H   0  0  0  0  0  0  0  0  0  0  0  0
    3.8684    0.0639   -0.4310 H   0  0  0  0  0  0  0  0  0  0  0  0
   -4.6822    0.0002   -0.6316 H   0  0  0  0  0  0  0  0  0  0  0  0
   -2.3804   -1.1041   -2.8919 H   0  0  0  0  0  0  0  0  0  0  0  0
  1  2  1  0
  2  3  1  0
  3  4  1  0
  4  5  1  0
  5  6  2  0
  6  7  1  0
  7  8  1  0
  7  9  2  0
  9 10  1  0
  9 11  1  0
 11  4  2  0
  1 12  1  0
  1 13  1  0
  1 14  1  0
  8 15  1  0
 10 16  1  0
M  CHG  1   1   1
M  END
>  <Query>  (1) 
True

$$$$
