PD128907_H+
     RDKit          3D

 20 22  0  0  0  0  0  0  0  0999 V2000
    4.6590    1.4187   -0.5051 C   0  0  0  0  0  0  0  0  0  0  0  0
    3.4711    0.5257   -0.8259 C   0  0  0  0  0  0  0  0  0  0  0  0
    2.7806    0.0512    0.4487 C   0  0  0  0  0  0  0  0  0  0  0  0
    1.5786   -0.8049    0.0883 N   0  0  0  0  0  0  0  0  0  0  0  0
    1.5561   -2.0961    0.9234 C   0  0  0  0  0  0  0  0  0  0  0  0
    0.3346   -2.9465    0.5538 C   0  0  0  0  0  0  0  0  0  0  0  0
   -0.8808   -2.2110    0.7258 O   0  0  0  0  0  0  0  0  0  0  0  0
   -0.9198   -1.0591   -0.1275 C   0  0  0  0  0  3  0  0  0  0  0  0
    0.2158   -0.0885    0.2621 C   0  0  0  0  0  3  0  0  0  0  0  0
    0.0545    1.1554   -0.6101 C   0  0  0  0  0  0  0  0  0  0  0  0
   -1.1719    1.8399   -0.3403 O   0  0  0  0  0  0  0  0  0  0  0  0
   -2.2807    1.0531   -0.1737 C   0  0  0  0  0  0  0  0  0  0  0  0
   -2.2358   -0.3414   -0.0374 C   0  0  0  0  0  0  0  0  0  0  0  0
   -3.4374   -1.0450    0.1230 C   0  0  0  0  0  0  0  0  0  0  0  0
   -4.6474   -0.3602    0.1743 C   0  0  0  0  0  0  0  0  0  0  0  0
   -4.6900    1.0240    0.0616 C   0  0  0  0  0  0  0  0  0  0  0  0
   -3.4997    1.7312   -0.1119 C   0  0  0  0  0  0  0  0  0  0  0  0
   -5.7808   -1.0975    0.3368 O   0  0  0  0  0  0  0  0  0  0  0  0
    1.6644   -1.0960   -0.8953 H   0  0  0  0  0  0  0  0  0  0  0  0
   -6.5491   -0.5020    0.3631 H   0  0  0  0  0  0  0  0  0  0  0  0
  1  2  1  0
  2  3  1  0
  3  4  1  0
  4  5  1  0
  5  6  1  0
  6  7  1  0
  8  7  1  1
  8  9  1  0
  9 10  1  6
 10 11  1  0
 11 12  1  0
 12 13  2  0
 13 14  1  0
 14 15  2  0
 15 16  1  0
 16 17  2  0
 15 18  1  0
  9  4  1  0
 13  8  1  0
 17 12  1  0
  4 19  1  0
 18 20  1  0
M  CHG  1   4   1
M  RAD  2   8   2   9   2
M  END
$$$$
