PD128907_H+
     RDKit          3D

 18 20  0  0  0  0  0  0  0  0999 V2000
    6.2475   -0.9941   -1.7746 C   0  0  0  0  0  0  0  0  0  0  0  0
    5.3216   -2.0769   -1.2487 C   0  0  0  0  0  0  0  0  0  0  0  0
    4.4283   -1.6668   -0.0759 C   0  0  0  0  0  0  0  0  0  0  0  0
    3.4381   -0.6006   -0.4667 N   0  0  2  0  0  0  0  0  0  0  0  0
    3.8799    0.8308   -0.1918 C   0  0  0  0  0  0  0  0  0  0  0  0
    2.9569    1.7972   -0.9728 C   0  0  0  0  0  0  0  0  0  0  0  0
    1.5972    1.3314   -1.0920 O   0  0  0  0  0  0  0  0  0  0  0  0
    1.2311    0.5460    0.0438 C   0  0  1  0  0  0  0  0  0  0  0  0
   -0.2300    0.2519    0.1823 C   0  0  0  0  0  0  0  0  0  0  0  0
   -1.2207    1.0723   -0.3722 C   0  0  0  0  0  0  0  0  0  0  0  0
   -2.5607    0.7629   -0.1587 C   0  0  0  0  0  0  0  0  0  0  0  0
   -3.5601    1.5253   -0.6830 O   0  0  0  0  0  0  0  0  0  0  0  0
   -2.9281   -0.3395    0.6053 C   0  0  0  0  0  0  0  0  0  0  0  0
   -1.9448   -1.1517    1.1693 C   0  0  0  0  0  0  0  0  0  0  0  0
   -0.5991   -0.8576    0.9620 C   0  0  0  0  0  0  0  0  0  0  0  0
    0.3006   -1.7183    1.5385 O   0  0  0  0  0  0  0  0  0  0  0  0
    1.7024   -1.4799    1.3177 C   0  0  0  0  0  0  0  0  0  0  0  0
    1.9645   -0.8139   -0.0341 C   0  0  2  0  0  0  0  0  0  0  0  0
  1  2  1  0
  2  3  1  0
  4  3  1  1
  4  5  1  0
  5  6  1  0
  6  7  1  0
  8  7  1  6
  8  9  1  0
  9 10  1  0
 10 11  2  0
 11 12  1  0
 11 13  1  0
 13 14  2  0
 14 15  1  0
 15 16  1  0
 16 17  1  0
 18 17  1  1
 18  4  1  0
 18  8  1  0
 15  9  2  0
M  CHG  1   4   1
M  END
>  <score>  (1) 
0.525

>  <SMILES>  (1) 
CCC[NH+]1CCO[C@H]2c3cc(O)ccc3OC[C@@H]21

>  <name>  (1) 
PD128907_H+

>  <tanimoto_combination>  (1) 
0.52464134

>  <tanimoto_shape>  (1) 
0.63877285

>  <tanimoto_color>  (1) 
0.4105098

>  <overlap_volume>  (1) 
506.1259

>  <overlap_color>  (1) 
26.83295

>  <tanimoto_combo_legacy>  (1) 
1.0492827

>  <query_name>  (1) 
dopamine_H+_0

>  <query_SMILES>  (1) 
[NH3+]CCc1ccc(O)c(O)c1

$$$$
