dopamine_H+
     RDKit          3D

 16 16  0  0  0  0  0  0  0  0999 V2000
   -2.2869    1.3694   -0.2748 C   0  0  0  0  0  0  0  0  0  0  0  0
   -3.6106    1.7208    0.0046 C   0  0  0  0  0  0  0  0  0  0  0  0
   -4.5475    0.7256    0.2420 C   0  0  0  0  0  0  0  0  0  0  0  0
   -4.1833   -0.6129    0.1661 C   0  0  0  0  0  0  0  0  0  0  0  0
   -2.8672   -0.9748   -0.0963 C   0  0  0  0  0  0  0  0  0  0  0  0
   -1.9023    0.0189   -0.3207 C   0  0  0  0  0  0  0  0  0  0  0  0
   -0.4694   -0.3609   -0.5818 C   0  0  0  0  0  0  0  0  0  0  0  0
    0.2866   -0.5665    0.7285 C   0  0  0  0  0  0  0  0  0  0  0  0
    1.6948   -0.9525    0.4490 N   0  0  0  0  0  0  0  0  0  0  0  0
   -5.1089   -1.6021    0.3207 O   0  0  0  0  0  0  0  0  0  0  0  0
   -5.8188    1.0902    0.5708 O   0  0  0  0  0  0  0  0  0  0  0  0
    2.1919   -0.2278   -0.0858 H   0  0  0  0  0  0  0  0  0  0  0  0
    2.2143   -1.0940    1.3260 H   0  0  0  0  0  0  0  0  0  0  0  0
    1.7514   -1.8316   -0.0826 H   0  0  0  0  0  0  0  0  0  0  0  0
   -5.9358   -1.2755   -0.0826 H   0  0  0  0  0  0  0  0  0  0  0  0
   -6.1484    0.4373    1.2150 H   0  0  0  0  0  0  0  0  0  0  0  0
  1  2  2  0
  2  3  1  0
  3  4  2  0
  4  5  1  0
  5  6  2  0
  6  7  1  0
  7  8  1  0
  8  9  1  0
  4 10  1  0
  3 11  1  0
  6  1  1  0
  9 12  1  0
  9 13  1  0
  9 14  1  0
 10 15  1  0
 11 16  1  0
M  CHG  1   9   1
M  END
$$$$
