dopamine_H+
     RDKit          3D

 16 16  0  0  0  0  0  0  0  0999 V2000
   -3.0952   -0.2307    1.4630 C   0  0  0  0  0  0  0  0  0  0  0  0
   -4.3044    0.1808    0.8900 C   0  0  0  0  0  0  0  0  0  0  0  0
   -4.2823    1.0512   -0.1914 C   0  0  0  0  0  0  0  0  0  0  0  0
   -3.0703    1.5154   -0.6900 C   0  0  0  0  0  0  0  0  0  0  0  0
   -1.8664    1.1305   -0.1178 C   0  0  0  0  0  0  0  0  0  0  0  0
   -1.8675    0.2367    0.9620 C   0  0  0  0  0  0  0  0  0  0  0  0
   -0.5626   -0.2467    1.5446 C   0  0  0  0  0  0  0  0  0  0  0  0
   -0.1551   -1.6180    1.0001 C   0  0  0  0  0  0  0  0  0  0  0  0
   -0.0050   -1.5835   -0.4801 N   0  0  0  0  0  0  0  0  0  0  0  0
   -3.0432    2.3563   -1.7632 O   0  0  0  0  0  0  0  0  0  0  0  0
   -5.4237    1.4812   -0.8037 O   0  0  0  0  0  0  0  0  0  0  0  0
    0.6910   -0.8897   -0.7823 H   0  0  0  0  0  0  0  0  0  0  0  0
   -0.8968   -1.3340   -0.9349 H   0  0  0  0  0  0  0  0  0  0  0  0
    0.2801   -2.4974   -0.8540 H   0  0  0  0  0  0  0  0  0  0  0  0
   -3.9845    2.5427   -1.9641 H   0  0  0  0  0  0  0  0  0  0  0  0
   -6.1938    1.1636   -0.2993 H   0  0  0  0  0  0  0  0  0  0  0  0
  1  2  2  0
  2  3  1  0
  3  4  2  0
  4  5  1  0
  5  6  2  0
  6  7  1  0
  7  8  1  0
  8  9  1  0
  4 10  1  0
  3 11  1  0
  6  1  1  0
  9 12  1  0
  9 13  1  0
  9 14  1  0
 10 15  1  0
 11 16  1  0
M  CHG  1   9   1
M  END
$$$$
