dopamine_H+
     RDKit          3D

 16 16  0  0  0  0  0  0  0  0999 V2000
   -2.3130    1.2721   -0.2902 C   0  0  0  0  0  0  0  0  0  0  0  0
   -3.5957    1.7311    0.0118 C   0  0  0  0  0  0  0  0  0  0  0  0
   -4.6011    0.8138    0.2717 C   0  0  0  0  0  0  0  0  0  0  0  0
   -4.3473   -0.5533    0.2270 C   0  0  0  0  0  0  0  0  0  0  0  0
   -3.0708   -1.0239   -0.0678 C   0  0  0  0  0  0  0  0  0  0  0  0
   -2.0372   -0.1069   -0.3272 C   0  0  0  0  0  0  0  0  0  0  0  0
   -0.6376   -0.5858   -0.6129 C   0  0  0  0  0  0  0  0  0  0  0  0
    0.2349   -0.5058    0.6384 C   0  0  0  0  0  0  0  0  0  0  0  0
    1.6173   -0.9557    0.3271 N   0  0  0  0  0  0  0  0  0  0  0  0
   -5.3909   -1.3965    0.4850 O   0  0  0  0  0  0  0  0  0  0  0  0
   -5.8510    1.2710    0.5693 O   0  0  0  0  0  0  0  0  0  0  0  0
    2.0577   -0.3678   -0.3935 H   0  0  0  0  0  0  0  0  0  0  0  0
    1.6409   -1.9297   -0.0030 H   0  0  0  0  0  0  0  0  0  0  0  0
    2.2136   -0.9043    1.1645 H   0  0  0  0  0  0  0  0  0  0  0  0
   -5.1156   -2.3135    0.3178 H   0  0  0  0  0  0  0  0  0  0  0  0
   -6.3945    0.4681    0.6988 H   0  0  0  0  0  0  0  0  0  0  0  0
  1  2  2  0
  2  3  1  0
  3  4  2  0
  4  5  1  0
  5  6  2  0
  6  7  1  0
  7  8  1  0
  8  9  1  0
  4 10  1  0
  3 11  1  0
  6  1  1  0
  9 12  1  0
  9 13  1  0
  9 14  1  0
 10 15  1  0
 11 16  1  0
M  CHG  1   9   1
M  END
$$$$
