PD128907_H+
     RDKit          3D

 18 20  0  0  0  0  0  0  0  0999 V2000
    6.5692   -0.3970   -0.3062 C   0  0  0  0  0  0  0  0  0  0  0  0
    5.5694   -0.4628   -1.4486 C   0  0  0  0  0  0  0  0  0  0  0  0
    4.1398   -0.8150   -1.0376 C   0  0  0  0  0  0  0  0  0  0  0  0
    3.5246    0.2821   -0.1834 N   0  0  2  0  0  0  0  0  0  0  0  0
    3.7468    0.0412    1.3308 C   0  0  0  0  0  0  0  0  0  0  0  0
    2.4264   -0.1952    2.0929 C   0  0  0  0  0  0  0  0  0  0  0  0
    1.5524   -1.0902    1.4037 O   0  0  0  0  0  0  0  0  0  0  0  0
    1.2092   -0.6761    0.0715 C   0  0  1  0  0  0  0  0  0  0  0  0
   -0.2472   -0.3384   -0.0985 C   0  0  0  0  0  0  0  0  0  0  0  0
   -1.2355   -0.9790    0.6602 C   0  0  0  0  0  0  0  0  0  0  0  0
   -2.5771   -0.6668    0.4638 C   0  0  0  0  0  0  0  0  0  0  0  0
   -3.4925   -1.3162    1.2355 O   0  0  0  0  0  0  0  0  0  0  0  0
   -2.9619    0.2725   -0.4858 C   0  0  0  0  0  0  0  0  0  0  0  0
   -1.9856    0.9062   -1.2560 C   0  0  0  0  0  0  0  0  0  0  0  0
   -0.6367    0.5966   -1.0744 C   0  0  0  0  0  0  0  0  0  0  0  0
    0.2419    1.2882   -1.8736 O   0  0  0  0  0  0  0  0  0  0  0  0
    1.6049    0.8430   -1.8465 C   0  0  0  0  0  0  0  0  0  0  0  0
    2.0318    0.5284   -0.4168 C   0  0  2  0  0  0  0  0  0  0  0  0
  1  2  1  0
  2  3  1  0
  4  3  1  6
  4  5  1  0
  5  6  1  0
  6  7  1  0
  8  7  1  1
  8  9  1  0
  9 10  1  0
 10 11  2  0
 11 12  1  0
 11 13  1  0
 13 14  2  0
 14 15  1  0
 15 16  1  0
 16 17  1  0
 18 17  1  6
 18  4  1  0
 18  8  1  0
 15  9  2  0
M  CHG  1   4   1
M  END
>  <score>  (1) 
0.508

>  <SMILES>  (1) 
CCC[NH+]1CCO[C@H]2c3cc(O)ccc3OC[C@@H]21

>  <name>  (1) 
PD128907_H+

>  <tanimoto_combination>  (1) 
0.50796485

>  <tanimoto_shape>  (1) 
0.6555877

>  <tanimoto_color>  (1) 
0.36034197

>  <overlap_volume>  (1) 
514.3469

>  <overlap_color>  (1) 
27.088736

>  <tanimoto_combo_legacy>  (1) 
1.0159297

>  <query_name>  (1) 
dopamine_H+_0

>  <query_SMILES>  (1) 
[NH3+]CCc1ccc(O)c(O)c1

$$$$
