tmpl0
     RDKit          3D

 20 22  0  0  0  0  0  0  0  0999 V2000
    4.4780    0.0521    0.6315 C   0  0  0  0  0  0  0  0  0  0  0  0
    3.9265   -1.2152   -0.0044 C   0  0  0  0  0  0  0  0  0  0  0  0
    2.4415   -1.4519    0.2709 C   0  0  0  0  0  0  0  0  0  0  0  0
    1.5583   -0.3090   -0.1942 N   0  0  0  0  0  0  0  0  0  0  0  0
    1.6340   -0.1103   -1.7200 C   0  0  0  0  0  0  0  0  0  0  0  0
    0.6865    1.0083   -2.1687 C   0  0  0  0  0  0  0  0  0  0  0  0
   -0.6580    0.7405   -1.7655 O   0  0  0  0  0  0  0  0  0  0  0  0
   -0.7661    0.6824   -0.3384 C   0  0  0  0  0  3  0  0  0  0  0  0
    0.0637   -0.5059    0.1973 C   0  0  0  0  0  3  0  0  0  0  0  0
   -0.1811   -0.5573    1.7073 C   0  0  0  0  0  0  0  0  0  0  0  0
   -1.5482   -0.8418    2.0185 O   0  0  0  0  0  0  0  0  0  0  0  0
   -2.4898   -0.1954    1.2635 C   0  0  0  0  0  0  0  0  0  0  0  0
   -2.1931    0.5335    0.1043 C   0  0  0  0  0  0  0  0  0  0  0  0
   -3.2389    1.1609   -0.5869 C   0  0  0  0  0  0  0  0  0  0  0  0
   -4.5499    1.0321   -0.1390 C   0  0  0  0  0  0  0  0  0  0  0  0
   -4.8464    0.2905    0.9978 C   0  0  0  0  0  0  0  0  0  0  0  0
   -3.8098   -0.3257    1.6995 C   0  0  0  0  0  0  0  0  0  0  0  0
   -5.5235    1.6599   -0.8550 O   0  0  0  0  0  0  0  0  0  0  0  0
    1.8834    0.5586    0.2523 H   0  0  0  0  0  0  0  0  0  0  0  0
   -6.3867    1.4860   -0.4425 H   0  0  0  0  0  0  0  0  0  0  0  0
  1  2  1  0
  2  3  1  0
  3  4  1  0
  4  5  1  0
  5  6  1  0
  6  7  1  0
  8  7  1  6
  8  9  1  0
  9 10  1  1
 10 11  1  0
 11 12  1  0
 12 13  2  0
 13 14  1  0
 14 15  2  0
 15 16  1  0
 16 17  2  0
 15 18  1  0
  9  4  1  0
 13  8  1  0
 17 12  1  0
  4 19  1  0
 18 20  1  0
M  CHG  1   4   1
M  RAD  2   8   2   9   2
M  END
$$$$
