dopamine_H+_0
     RDKit          3D

 11 11  0  0  0  0  0  0  0  0999 V2000
    3.6066    0.0099    0.7763 N   0  0  0  0  0  0  0  0  0  0  0  0
    2.1447    0.2804    0.7777 C   0  0  0  0  0  0  0  0  0  0  0  0
    1.4810   -0.4240   -0.4038 C   0  0  0  0  0  0  0  0  0  0  0  0
   -0.0071   -0.1966   -0.4029 C   0  0  0  0  0  0  0  0  0  0  0  0
   -0.5949    0.7406   -1.2703 C   0  0  0  0  0  0  0  0  0  0  0  0
   -1.9770    0.9646   -1.2510 C   0  0  0  0  0  0  0  0  0  0  0  0
   -2.7687    0.2536   -0.3591 C   0  0  0  0  0  0  0  0  0  0  0  0
   -4.1211    0.4271   -0.2878 O   0  0  0  0  0  0  0  0  0  0  0  0
   -2.1917   -0.6731    0.5021 C   0  0  0  0  0  0  0  0  0  0  0  0
   -2.9671   -1.3691    1.3828 O   0  0  0  0  0  0  0  0  0  0  0  0
   -0.8240   -0.9085    0.4868 C   0  0  0  0  0  0  0  0  0  0  0  0
  1  2  1  0
  2  3  1  0
  3  4  1  0
  4  5  1  0
  5  6  2  0
  6  7  1  0
  7  8  1  0
  7  9  2  0
  9 10  1  0
  9 11  1  0
 11  4  2  0
M  CHG  1   1   1
M  END
>  <Query>  (1) 
True

$$$$
