PD128907_H+
     RDKit          3D

 18 20  0  0  0  0  0  0  0  0999 V2000
    5.4231   -0.8138    3.5889 C   0  0  0  0  0  0  0  0  0  0  0  0
    4.3829   -1.1729    2.5384 C   0  0  0  0  0  0  0  0  0  0  0  0
    4.5718   -0.3395    1.2735 C   0  0  0  0  0  0  0  0  0  0  0  0
    3.5217   -0.6967    0.2520 N   0  0  2  0  0  0  0  0  0  0  0  0
    3.9272   -0.3656   -1.1781 C   0  0  0  0  0  0  0  0  0  0  0  0
    2.9304   -1.0227   -2.1626 C   0  0  0  0  0  0  0  0  0  0  0  0
    1.5755   -1.0844   -1.6794 O   0  0  0  0  0  0  0  0  0  0  0  0
    1.3005   -0.0127   -0.7756 C   0  0  1  0  0  0  0  0  0  0  0  0
   -0.1480    0.1633   -0.4317 C   0  0  0  0  0  0  0  0  0  0  0  0
   -1.1764   -0.2166   -1.3058 C   0  0  0  0  0  0  0  0  0  0  0  0
   -2.5011    0.0165   -0.9466 C   0  0  0  0  0  0  0  0  0  0  0  0
   -3.5337   -0.3426   -1.7598 O   0  0  0  0  0  0  0  0  0  0  0  0
   -2.8176    0.6306    0.2605 C   0  0  0  0  0  0  0  0  0  0  0  0
   -1.7979    1.0215    1.1284 C   0  0  0  0  0  0  0  0  0  0  0  0
   -0.4668    0.7939    0.7838 C   0  0  0  0  0  0  0  0  0  0  0  0
    0.4676    1.1952    1.7057 O   0  0  0  0  0  0  0  0  0  0  0  0
    1.8526    0.9924    1.3819 C   0  0  0  0  0  0  0  0  0  0  0  0
    2.0627   -0.2698    0.5445 C   0  0  2  0  0  0  0  0  0  0  0  0
  1  2  1  0
  2  3  1  0
  4  3  1  1
  4  5  1  0
  5  6  1  0
  6  7  1  0
  8  7  1  6
  8  9  1  0
  9 10  1  0
 10 11  2  0
 11 12  1  0
 11 13  1  0
 13 14  2  0
 14 15  1  0
 15 16  1  0
 16 17  1  0
 18 17  1  1
 18  4  1  0
 18  8  1  0
 15  9  2  0
M  CHG  1   4   1
M  END
>  <score>  (1) 
0.552

>  <SMILES>  (1) 
CCC[NH+]1CCO[C@H]2c3cc(O)ccc3OC[C@@H]21

>  <name>  (1) 
PD128907_H+

>  <tanimoto_combination>  (1) 
0.5522022

>  <tanimoto_shape>  (1) 
0.6266506

>  <tanimoto_color>  (1) 
0.47775388

>  <overlap_volume>  (1) 
500.40067

>  <overlap_color>  (1) 
19.613089

>  <tanimoto_combo_legacy>  (1) 
1.1044044

>  <query_name>  (1) 
dopamine_H+_0

>  <query_SMILES>  (1) 
[NH3+]CCc1ccc(O)c(O)c1

$$$$
