dopamine_H+
     RDKit          3D

 16 16  0  0  0  0  0  0  0  0999 V2000
   -0.6466    0.9643    0.9637 C   0  0  0  0  0  0  0  0  0  0  0  0
   -2.0400    0.9159    1.0613 C   0  0  0  0  0  0  0  0  0  0  0  0
   -2.7791    0.3783    0.0179 C   0  0  0  0  0  0  0  0  0  0  0  0
   -2.1420   -0.1380   -1.1033 C   0  0  0  0  0  0  0  0  0  0  0  0
   -0.7584   -0.0807   -1.2184 C   0  0  0  0  0  0  0  0  0  0  0  0
    0.0057    0.4736   -0.1801 C   0  0  0  0  0  0  0  0  0  0  0  0
    1.5077    0.4987   -0.2756 C   0  0  0  0  0  0  0  0  0  0  0  0
    2.1054   -0.8242    0.1974 C   0  0  0  0  0  0  0  0  0  0  0  0
    3.5869   -0.7849    0.0801 N   0  0  0  0  0  0  0  0  0  0  0  0
   -2.8506   -0.7416   -2.0997 O   0  0  0  0  0  0  0  0  0  0  0  0
   -4.1392    0.3799    0.1040 O   0  0  0  0  0  0  0  0  0  0  0  0
    3.8889   -0.6387   -0.8926 H   0  0  0  0  0  0  0  0  0  0  0  0
    3.9972   -0.0361    0.6540 H   0  0  0  0  0  0  0  0  0  0  0  0
    4.0006   -1.6725    0.3963 H   0  0  0  0  0  0  0  0  0  0  0  0
   -3.6935   -1.0378   -1.7068 H   0  0  0  0  0  0  0  0  0  0  0  0
   -4.4698    0.7711   -0.7263 H   0  0  0  0  0  0  0  0  0  0  0  0
  1  2  2  0
  2  3  1  0
  3  4  2  0
  4  5  1  0
  5  6  2  0
  6  7  1  0
  7  8  1  0
  8  9  1  0
  4 10  1  0
  3 11  1  0
  6  1  1  0
  9 12  1  0
  9 13  1  0
  9 14  1  0
 10 15  1  0
 11 16  1  0
M  CHG  1   9   1
M  END
$$$$
