overlap_pharmacophore
     RDKit          3D

  8  0  0  0  0  0  0  0  0  0999 V2000
   -1.4647   -0.1087    0.5053 S   0  0  0  0  0  0  0  0  0  0  0  0
    3.5144   -0.2887   -0.7680 N   0  0  0  0  0  0  0  0  0  0  0  0
    3.5144   -0.2887   -0.7680 Fe  0  0  0  0  0 15  0  0  0  0  0  0
   -1.8051   -1.2110    1.2843 Br  0  0  0  0  0  0  0  0  0  0  0  0
   -0.1244    0.2082    0.2822 Br  0  0  0  0  0  0  0  0  0  0  0  0
   -1.1321    0.9980   -0.2747 Br  0  0  0  0  0  0  0  0  0  0  0  0
   -3.4436    1.4395   -0.5967 N   0  0  0  0  0  0  0  0  0  0  0  0
   -3.4436    1.4395   -0.5967 O   0  0  0  0  0  0  0  0  0  0  0  0
M  END
>  <min_overlap_fraction>  (1) 
0.15

>  <features>  (1) 
Aromatic(d=0.11), Donor(d=0.15), PosIonizable(d=0.15), Hydrophobe(d=0.18), Hydrophobe(d=0.34), Hydrophobe(d=0.36), Donor(d=0.50), Acceptor(d=0.50)

$$$$
