overlap_pharmacophore
     RDKit          3D

  8  0  0  0  0  0  0  0  0  0999 V2000
   -3.3963    0.3495   -0.0116 S   0  0  0  0  0  0  0  0  0  0  0  0
   -3.5477    1.7311   -0.0500 Br  0  0  0  0  0  0  0  0  0  0  0  0
    1.5980   -0.8803    0.2077 Fe  0  0  0  0  0 15  0  0  0  0  0  0
    1.5980   -0.8803    0.2077 N   0  0  0  0  0  0  0  0  0  0  0  0
   -3.2541   -1.0344    0.0276 Br  0  0  0  0  0  0  0  0  0  0  0  0
   -2.1365   -0.2241   -0.1823 Br  0  0  0  0  0  0  0  0  0  0  0  0
   -5.5859   -1.2470    0.4109 O   0  0  0  0  0  0  0  0  0  0  0  0
   -5.5859   -1.2470    0.4109 N   0  0  0  0  0  0  0  0  0  0  0  0
M  END
>  <min_overlap_fraction>  (1) 
0.15

>  <features>  (1) 
Aromatic(d=0.14), Hydrophobe(d=0.16), PosIonizable(d=0.29), Donor(d=0.29), Hydrophobe(d=0.41), Hydrophobe(d=0.42), Acceptor(d=0.51), Donor(d=0.51)

$$$$
