overlap_pharmacophore
     RDKit          3D

  7  0  0  0  0  0  0  0  0  0999 V2000
   -0.5246    0.8701   -1.8122 O   0  0  0  0  0  0  0  0  0  0  0  0
    1.2889   -0.3792   -0.1234 N   0  0  0  0  0  0  0  0  0  0  0  0
   -4.6524    0.4992    0.9151 Br  0  0  0  0  0  0  0  0  0  0  0  0
   -2.2630    0.7123   -0.2041 Br  0  0  0  0  0  0  0  0  0  0  0  0
   -3.1139    0.7945    0.0247 Br  0  0  0  0  0  0  0  0  0  0  0  0
   -3.0401   -0.3286    1.6379 Br  0  0  0  0  0  0  0  0  0  0  0  0
   -2.5774    0.2700    0.4923 S   0  0  0  0  0  0  0  0  0  0  0  0
M  END
>  <min_overlap_fraction>  (1) 
0.15

>  <features>  (1) 
Acceptor(d=0.38), Donor(d=0.57), Hydrophobe(d=0.59), Hydrophobe(d=0.73), Hydrophobe(d=1.45), Hydrophobe(d=1.54), Aromatic(d=1.91)

$$$$
