None
     MoleculeKit    3D
 Structure written by MoleculeKit.
 26  0  0  0  0  0  0  0  0  0999 V2000
    3.5367   -0.2407   -0.8212 N   0  0  0  0  0  0  0  0  0  0  0  0
    4.8960   -0.8309    1.7872 F   0  0  0  0  0  0  0  0  0  0  0  0
    4.1723    2.5944   -1.5682 F   0  0  0  0  0  0  0  0  0  0  0  0
    4.8004   -2.0065   -2.8913 F   0  0  0  0  0  0  0  0  0  0  0  0
   -3.2620    1.5218   -0.7452 N   0  0  0  0  0  0  0  0  0  0  0  0
   -1.9411    3.9502   -1.9106 F   0  0  0  0  0  0  0  0  0  0  0  0
   -4.1071   -0.6289    0.6671 N   0  0  0  0  0  0  0  0  0  0  0  0
   -5.4468    1.5503   -0.9001 F   0  0  0  0  0  0  0  0  0  0  0  0
   -3.2620    1.5218   -0.7452 O   0  0  0  0  0  0  0  0  0  0  0  0
   -5.3131    2.3710    1.2726 I   0  0  0  0  0  0  0  0  0  0  0  0
   -4.5959   -0.0376   -2.9336 I   0  0  0  0  0  0  0  0  0  0  0  0
   -4.1071   -0.6289    0.6671 O   0  0  0  0  0  0  0  0  0  0  0  0
   -5.0190   -0.5813    3.5248 I   0  0  0  0  0  0  0  0  0  0  0  0
   -4.7126   -3.3110   -0.5328 I   0  0  0  0  0  0  0  0  0  0  0  0
    3.5367   -0.2407   -0.8212 Fe  0  0  0  0  0  0  0  0  0  0  0  0
    4.8960   -0.8309    1.7872 P   0  0  0  0  0  0  0  0  0  0  0  0
    4.1723    2.5944   -1.5682 P   0  0  0  0  0  0  0  0  0  0  0  0
    4.8004   -2.0065   -2.8913 P   0  0  0  0  0  0  0  0  0  0  0  0
   -1.4142   -0.0932    0.5073 S   0  0  0  0  0  0  0  0  0  0  0  0
   -1.6293    1.9033    3.3739 B   0  0  0  0  0  0  0  0  0  0  0  0
   -1.1991   -2.0896   -2.3594 B   0  0  0  0  0  0  0  0  0  0  0  0
   -0.5122   -0.9284    1.1602 Br  0  0  0  0  0  0  0  0  0  0  0  0
   -1.8797   -1.1944    1.2397 Br  0  0  0  0  0  0  0  0  0  0  0  0
   -0.9597    1.0124   -0.2284 Br  0  0  0  0  0  0  0  0  0  0  0  0
   -0.0394    0.1719    0.4221 Br  0  0  0  0  0  0  0  0  0  0  0  0
    1.4423    0.4211    0.3105 Br  0  0  0  0  0  0  0  0  0  0  0  0
M  END
$$$$
None
     MoleculeKit    3D
 Structure written by MoleculeKit.
 24  0  0  0  0  0  0  0  0  0999 V2000
    3.4939   -0.6319   -0.2938 N   0  0  0  0  0  0  0  0  0  0  0  0
    3.5334   -1.1600   -3.2467 F   0  0  0  0  0  0  0  0  0  0  0  0
   -3.5409    1.5092   -0.6196 N   0  0  0  0  0  0  0  0  0  0  0  0
   -2.3475    3.7851   -2.1677 F   0  0  0  0  0  0  0  0  0  0  0  0
    1.5862    1.2402   -1.0781 O   0  0  0  0  0  0  0  0  0  0  0  0
    1.2447   -0.5298   -3.4762 I   0  0  0  0  0  0  0  0  0  0  0  0
   -0.2437    3.6062   -1.3110 I   0  0  0  0  0  0  0  0  0  0  0  0
    0.2916   -1.7930    1.5616 O   0  0  0  0  0  0  0  0  0  0  0  0
   -0.2831   -1.8787    4.5049 I   0  0  0  0  0  0  0  0  0  0  0  0
   -0.2267   -4.4932    0.3611 I   0  0  0  0  0  0  0  0  0  0  0  0
   -3.5409    1.5092   -0.6196 O   0  0  0  0  0  0  0  0  0  0  0  0
   -5.2174    2.5969    1.6179 I   0  0  0  0  0  0  0  0  0  0  0  0
   -5.2556   -0.1453   -2.4427 I   0  0  0  0  0  0  0  0  0  0  0  0
    3.4939   -0.6319   -0.2938 Fe  0  0  0  0  0  0  0  0  0  0  0  0
    3.5334   -1.1600   -3.2467 P   0  0  0  0  0  0  0  0  0  0  0  0
   -1.5730   -0.0882    0.4415 S   0  0  0  0  0  0  0  0  0  0  0  0
   -1.5808   -2.0327   -2.4688 B   0  0  0  0  0  0  0  0  0  0  0  0
   -1.5652    1.8563    3.3517 B   0  0  0  0  0  0  0  0  0  0  0  0
    5.8485   -1.8766   -1.8010 Br  0  0  0  0  0  0  0  0  0  0  0  0
    5.8401   -1.5954   -0.3058 Br  0  0  0  0  0  0  0  0  0  0  0  0
   -0.2177    0.2038    0.2359 Br  0  0  0  0  0  0  0  0  0  0  0  0
   -1.2052    1.0380   -0.3070 Br  0  0  0  0  0  0  0  0  0  0  0  0
   -2.9237   -0.3810    0.6380 Br  0  0  0  0  0  0  0  0  0  0  0  0
   -1.9460   -1.2073    1.1906 Br  0  0  0  0  0  0  0  0  0  0  0  0
M  END
$$$$
