overlap_pharmacophore
     RDKit          3D

  8  0  0  0  0  0  0  0  0  0999 V2000
   -1.4645   -0.1087    0.5053 S   0  0  0  0  0  0  0  0  0  0  0  0
    3.5142   -0.2887   -0.7679 Fe  0  0  0  0  0 15  0  0  0  0  0  0
    3.5142   -0.2887   -0.7679 N   0  0  0  0  0  0  0  0  0  0  0  0
   -1.8051   -1.2109    1.2842 Br  0  0  0  0  0  0  0  0  0  0  0  0
   -0.1243    0.2082    0.2821 Br  0  0  0  0  0  0  0  0  0  0  0  0
   -1.1319    0.9977   -0.2746 Br  0  0  0  0  0  0  0  0  0  0  0  0
   -3.4431    1.4393   -0.5966 N   0  0  0  0  0  0  0  0  0  0  0  0
   -3.4431    1.4393   -0.5966 O   0  0  0  0  0  0  0  0  0  0  0  0
M  END
>  <min_overlap_fraction>  (1) 
0.15

>  <features>  (1) 
Aromatic(d=0.11), PosIonizable(d=0.15), Donor(d=0.15), Hydrophobe(d=0.18), Hydrophobe(d=0.34), Hydrophobe(d=0.36), Donor(d=0.50), Acceptor(d=0.50)

$$$$
