overlap_pharmacophore
     RDKit          3D

 11  0  0  0  0  0  0  0  0  0999 V2000
   -3.1775    3.3263    2.5527 B   0  0  0  0  0  0  0  0  0  0  0  0
   -5.4736    1.5705   -0.8294 O   0  0  0  0  0  0  0  0  0  0  0  0
   -5.4736    1.5705   -0.8294 N   0  0  0  0  0  0  0  0  0  0  0  0
   -5.5319    0.5069   -3.6332 I   0  0  0  0  0  0  0  0  0  0  0  0
   -5.2248    4.5469   -0.8872 I   0  0  0  0  0  0  0  0  0  0  0  0
   -3.3012    0.5317    0.4712 S   0  0  0  0  0  0  0  0  0  0  0  0
   -4.5754    0.2357    0.9439 Br  0  0  0  0  0  0  0  0  0  0  0  0
   -2.0298    0.8320   -0.0068 Br  0  0  0  0  0  0  0  0  0  0  0  0
   -3.4525   -0.2782    1.5813 Br  0  0  0  0  0  0  0  0  0  0  0  0
   -7.9915    0.8132    0.5838 F   0  0  0  0  0  0  0  0  0  0  0  0
   -3.4249   -2.2630   -1.6102 B   0  0  0  0  0  0  0  0  0  0  0  0
M  END
>  <min_overlap_fraction>  (1) 
0.15

>  <features>  (1) 
AromaticProj(d=0.14), Acceptor(d=0.21), Donor(d=0.21), AcceptorProj(d=0.23), AcceptorProj(d=0.47), Aromatic(d=0.53), Hydrophobe(d=0.56), Hydrophobe(d=0.72), Hydrophobe(d=0.76), DonorProj(d=0.81), AromaticProj(d=1.13)

$$$$
