overlap_pharmacophore
     RDKit          3D

 12  0  0  0  0  0  0  0  0  0999 V2000
   -3.5551    1.7260   -0.0536 Br  0  0  0  0  0  0  0  0  0  0  0  0
   -3.3491    0.3591   -0.0203 S   0  0  0  0  0  0  0  0  0  0  0  0
   -3.8770    0.1718   -3.4666 B   0  0  0  0  0  0  0  0  0  0  0  0
    1.6367   -0.8787    0.2687 Fe  0  0  0  0  0 15  0  0  0  0  0  0
    1.6367   -0.8787    0.2687 N   0  0  0  0  0  0  0  0  0  0  0  0
   -2.0690   -0.1612   -0.1790 Br  0  0  0  0  0  0  0  0  0  0  0  0
   -5.5754   -2.4053    3.0709 I   0  0  0  0  0  0  0  0  0  0  0  0
   -3.1523   -1.0099    0.0134 Br  0  0  0  0  0  0  0  0  0  0  0  0
   -2.8211    0.5464    3.4261 B   0  0  0  0  0  0  0  0  0  0  0  0
   -5.4449   -1.3498    0.3288 O   0  0  0  0  0  0  0  0  0  0  0  0
   -5.4449   -1.3498    0.3288 N   0  0  0  0  0  0  0  0  0  0  0  0
   -3.6991   -4.0466   -0.5009 I   0  0  0  0  0  0  0  0  0  0  0  0
M  END
>  <min_overlap_fraction>  (1) 
0.15

>  <features>  (1) 
Hydrophobe(d=0.16), Aromatic(d=0.24), AromaticProj(d=0.33), PosIonizable(d=0.41), Donor(d=0.41), Hydrophobe(d=0.57), AcceptorProj(d=0.57), Hydrophobe(d=0.61), AromaticProj(d=0.69), Acceptor(d=0.84), Donor(d=0.84), AcceptorProj(d=1.51)

$$$$
