overlap_pharmacophore
     RDKit          3D

 15  0  0  0  0  0  0  0  0  0999 V2000
   -1.5973    1.8797    3.3628 B   0  0  0  0  0  0  0  0  0  0  0  0
   -1.9128   -1.2008    1.2151 Br  0  0  0  0  0  0  0  0  0  0  0  0
   -1.4935   -0.0907    0.4744 S   0  0  0  0  0  0  0  0  0  0  0  0
   -1.0824    1.0252   -0.2677 Br  0  0  0  0  0  0  0  0  0  0  0  0
   -0.1286    0.1879    0.3290 Br  0  0  0  0  0  0  0  0  0  0  0  0
   -3.4014    1.5154   -0.6824 N   0  0  0  0  0  0  0  0  0  0  0  0
   -3.4014    1.5154   -0.6824 O   0  0  0  0  0  0  0  0  0  0  0  0
   -1.3898   -2.0611   -2.4141 B   0  0  0  0  0  0  0  0  0  0  0  0
   -5.2652    2.4839    1.4453 I   0  0  0  0  0  0  0  0  0  0  0  0
   -2.1442    3.8676   -2.0391 F   0  0  0  0  0  0  0  0  0  0  0  0
    3.5152   -0.4363   -0.5575 Fe  0  0  0  0  0 15  0  0  0  0  0  0
    3.5152   -0.4363   -0.5575 N   0  0  0  0  0  0  0  0  0  0  0  0
   -4.9255   -0.0915   -2.6882 I   0  0  0  0  0  0  0  0  0  0  0  0
    4.1669   -1.5832   -3.0690 F   0  0  0  0  0  0  0  0  0  0  0  0
    4.1669   -1.5832   -3.0690 P   0  0  0  0  0  0  0  0  0  0  0  0
M  END
>  <min_overlap_fraction>  (1) 
0.15

>  <features>  (1) 
AromaticProj(d=0.08), Hydrophobe(d=0.08), Aromatic(d=0.17), Hydrophobe(d=0.26), Hydrophobe(d=0.26), Donor(d=0.31), Acceptor(d=0.31), AromaticProj(d=0.40), AcceptorProj(d=0.42), DonorProj(d=0.51), PosIonizable(d=0.66), Donor(d=0.66), AcceptorProj(d=0.83), DonorProj(d=1.56), PosIonizableProj(d=1.56)

$$$$
