dopamine_x_PD128907_overlap_pharmacophore
     RDKit          3D

  8  0  0  0  0  0  0  0  0  0999 V2000
   -1.4390    0.4102   -0.0809 S   0  0  0  0  0  0  0  0  0  0  0  0
    3.5543   -0.7408    0.1661 Fe  0  0  0  0  0 15  0  0  0  0  0  0
    3.5543   -0.7408    0.1661 N   0  0  0  0  0  0  0  0  0  0  0  0
   -1.9190    0.9687    1.0949 Br  0  0  0  0  0  0  0  0  0  0  0  0
   -0.0711    0.3185   -0.3059 Br  0  0  0  0  0  0  0  0  0  0  0  0
   -0.9674   -0.1487   -1.2621 Br  0  0  0  0  0  0  0  0  0  0  0  0
   -3.1921   -0.5421   -1.9297 O   0  0  0  0  0  0  0  0  0  0  0  0
   -3.1921   -0.5421   -1.9297 N   0  0  0  0  0  0  0  0  0  0  0  0
M  END
>  <min_overlap_fraction>  (1) 
0.1

>  <features>  (1) 
Aromatic(d=0.09), PosIonizable(d=0.20), Donor(d=0.20), Hydrophobe(d=0.27), Hydrophobe(d=0.43), Hydrophobe(d=0.45), Acceptor(d=0.86), Donor(d=0.86)

$$$$
