dopamine_x_PD128907_overlap_pharmacophore
     RDKit          3D

 13  0  0  0  0  0  0  0  0  0999 V2000
   -1.9813    0.9354   -1.2535 Br  0  0  0  0  0  0  0  0  0  0  0  0
   -1.8425   -2.5252   -2.7401 B   0  0  0  0  0  0  0  0  0  0  0  0
   -1.5006   -0.0023   -0.3404 S   0  0  0  0  0  0  0  0  0  0  0  0
   -0.1272   -0.2675   -0.2507 Br  0  0  0  0  0  0  0  0  0  0  0  0
   -1.1587    2.5205    2.0593 B   0  0  0  0  0  0  0  0  0  0  0  0
   -1.0297   -0.9437    0.5735 Br  0  0  0  0  0  0  0  0  0  0  0  0
   -2.9889   -4.2973    0.8491 I   0  0  0  0  0  0  0  0  0  0  0  0
   -3.2298   -1.3426    1.3092 O   0  0  0  0  0  0  0  0  0  0  0  0
   -3.2298   -1.3426    1.3092 N   0  0  0  0  0  0  0  0  0  0  0  0
   -6.0087   -0.4244    0.6597 F   0  0  0  0  0  0  0  0  0  0  0  0
   -2.5829   -0.7176    4.1673 I   0  0  0  0  0  0  0  0  0  0  0  0
    3.5656    0.1460    0.2964 N   0  0  0  0  0  0  0  0  0  0  0  0
    3.5656    0.1460    0.2964 Fe  0  0  0  0  0 15  0  0  0  0  0  0
M  END
>  <min_overlap_fraction>  (1) 
0.15

>  <features>  (1) 
Hydrophobe(d=0.06), AromaticProj(d=0.13), Aromatic(d=0.24), Hydrophobe(d=0.41), AromaticProj(d=0.43), Hydrophobe(d=0.45), AcceptorProj(d=0.54), Acceptor(d=0.55), Donor(d=0.55), DonorProj(d=0.61), AcceptorProj(d=0.82), Donor(d=1.00), PosIonizable(d=1.00)

$$$$
