None
     MoleculeKit    3D
 Structure written by MoleculeKit.
 21  0  0  0  0  0  0  0  0  0999 V2000
    3.5869   -0.7849    0.0801 N   0  0  0  0  0  0  0  0  0  0  0  0
    4.4674   -0.3588   -2.7559 F   0  0  0  0  0  0  0  0  0  0  0  0
    4.7835    1.3987    1.7536 F   0  0  0  0  0  0  0  0  0  0  0  0
    4.7928   -3.3725    1.0019 F   0  0  0  0  0  0  0  0  0  0  0  0
   -2.8506   -0.7416   -2.0997 N   0  0  0  0  0  0  0  0  0  0  0  0
   -5.4414   -1.6520   -0.8920 F   0  0  0  0  0  0  0  0  0  0  0  0
   -4.1392    0.3799    0.1040 N   0  0  0  0  0  0  0  0  0  0  0  0
   -5.1560    1.5829   -2.4492 F   0  0  0  0  0  0  0  0  0  0  0  0
   -2.8506   -0.7416   -2.0997 O   0  0  0  0  0  0  0  0  0  0  0  0
   -4.4095   -2.0698   -4.2919 I   0  0  0  0  0  0  0  0  0  0  0  0
   -4.1392    0.3799    0.1040 O   0  0  0  0  0  0  0  0  0  0  0  0
   -7.1332    0.3833    0.2934 I   0  0  0  0  0  0  0  0  0  0  0  0
    3.5869   -0.7849    0.0801 Fe  0  0  0  0  0  0  0  0  0  0  0  0
   -1.3934    0.4189   -0.0765 S   0  0  0  0  0  0  0  0  0  0  0  0
   -1.1714   -2.7309    1.4334 B   0  0  0  0  0  0  0  0  0  0  0  0
   -1.6154    3.5686   -1.5864 B   0  0  0  0  0  0  0  0  0  0  0  0
   -0.6466    0.9643    0.9637 Br  0  0  0  0  0  0  0  0  0  0  0  0
   -2.0400    0.9159    1.0613 Br  0  0  0  0  0  0  0  0  0  0  0  0
   -0.7584   -0.0807   -1.2184 Br  0  0  0  0  0  0  0  0  0  0  0  0
    0.0057    0.4736   -0.1801 Br  0  0  0  0  0  0  0  0  0  0  0  0
    1.5077    0.4987   -0.2756 Br  0  0  0  0  0  0  0  0  0  0  0  0
M  END
$$$$
None
     MoleculeKit    3D
 Structure written by MoleculeKit.
 20  0  0  0  0  0  0  0  0  0999 V2000
    3.4603   -0.4788    0.5431 N   0  0  0  0  0  0  0  0  0  0  0  0
    3.3472   -3.4584    0.2114 F   0  0  0  0  0  0  0  0  0  0  0  0
   -3.3905   -0.5587   -2.0265 N   0  0  0  0  0  0  0  0  0  0  0  0
   -2.0317   -1.7357   -4.4283 F   0  0  0  0  0  0  0  0  0  0  0  0
    1.7579   -0.8575   -1.5715 O   0  0  0  0  0  0  0  0  0  0  0  0
    0.0509   -3.0980   -2.6048 I   0  0  0  0  0  0  0  0  0  0  0  0
    0.1948    1.2555    1.7441 O   0  0  0  0  0  0  0  0  0  0  0  0
   -1.0336    2.5230    4.1700 I   0  0  0  0  0  0  0  0  0  0  0  0
   -3.3905   -0.5587   -2.0265 O   0  0  0  0  0  0  0  0  0  0  0  0
   -5.4486   -1.5080   -3.9922 I   0  0  0  0  0  0  0  0  0  0  0  0
    3.4603   -0.4788    0.5431 Fe  0  0  0  0  0  0  0  0  0  0  0  0
   -1.5447    0.3281   -0.1946 S   0  0  0  0  0  0  0  0  0  0  0  0
   -1.5702   -2.8119    1.3515 B   0  0  0  0  0  0  0  0  0  0  0  0
   -1.5193    3.4682   -1.7408 B   0  0  0  0  0  0  0  0  0  0  0  0
    6.2861   -1.7572    0.9157 Br  0  0  0  0  0  0  0  0  0  0  0  0
    5.2809   -1.4225    2.0037 Br  0  0  0  0  0  0  0  0  0  0  0  0
   -0.1725    0.1940   -0.4333 Br  0  0  0  0  0  0  0  0  0  0  0  0
   -1.0938   -0.2579   -1.3868 Br  0  0  0  0  0  0  0  0  0  0  0  0
   -2.9136    0.4540    0.0434 Br  0  0  0  0  0  0  0  0  0  0  0  0
   -1.9996    0.9163    0.9897 Br  0  0  0  0  0  0  0  0  0  0  0  0
M  END
$$$$
