dopamine_H+_0
     RDKit          3D

 11 11  0  0  0  0  0  0  0  0999 V2000
    3.5869   -0.7849    0.0801 N   0  0  0  0  0  0  0  0  0  0  0  0
    2.1054   -0.8242    0.1974 C   0  0  0  0  0  0  0  0  0  0  0  0
    1.5077    0.4987   -0.2756 C   0  0  0  0  0  0  0  0  0  0  0  0
    0.0057    0.4736   -0.1801 C   0  0  0  0  0  0  0  0  0  0  0  0
   -0.6466    0.9643    0.9637 C   0  0  0  0  0  0  0  0  0  0  0  0
   -2.0400    0.9159    1.0613 C   0  0  0  0  0  0  0  0  0  0  0  0
   -2.7791    0.3783    0.0179 C   0  0  0  0  0  0  0  0  0  0  0  0
   -4.1392    0.3799    0.1040 O   0  0  0  0  0  0  0  0  0  0  0  0
   -2.1420   -0.1380   -1.1033 C   0  0  0  0  0  0  0  0  0  0  0  0
   -2.8506   -0.7416   -2.0997 O   0  0  0  0  0  0  0  0  0  0  0  0
   -0.7584   -0.0807   -1.2184 C   0  0  0  0  0  0  0  0  0  0  0  0
  1  2  1  0
  2  3  1  0
  3  4  1  0
  4  5  1  0
  5  6  2  0
  6  7  1  0
  7  8  1  0
  7  9  2  0
  9 10  1  0
  9 11  1  0
 11  4  2  0
M  CHG  1   1   1
M  END
>  <Query>  (1) 
True

$$$$
PD128907_H+
     RDKit          3D

 18 20  0  0  0  0  0  0  0  0999 V2000
    6.2861   -1.7572    0.9157 C   0  0  0  0  0  0  0  0  0  0  0  0
    5.2809   -1.4225    2.0037 C   0  0  0  0  0  0  0  0  0  0  0  0
    4.3724   -0.2254    1.7152 C   0  0  0  0  0  0  0  0  0  0  0  0
    3.4603   -0.4788    0.5431 N   0  0  0  0  0  0  0  0  0  0  0  0
    3.9747    0.0173   -0.8019 C   0  0  0  0  0  0  0  0  0  0  0  0
    3.1374   -0.6350   -1.9285 C   0  0  0  0  0  0  0  0  0  0  0  0
    1.7579   -0.8575   -1.5715 O   0  0  0  0  0  0  0  0  0  0  0  0
    1.3072    0.1389   -0.6523 C   0  0  1  0  0  0  0  0  0  0  0  0
   -0.1725    0.1940   -0.4333 C   0  0  0  0  0  0  0  0  0  0  0  0
   -1.0938   -0.2579   -1.3868 C   0  0  0  0  0  0  0  0  0  0  0  0
   -2.4562   -0.1277   -1.1341 C   0  0  0  0  0  0  0  0  0  0  0  0
   -3.3905   -0.5587   -2.0265 O   0  0  0  0  0  0  0  0  0  0  0  0
   -2.9136    0.4540    0.0434 C   0  0  0  0  0  0  0  0  0  0  0  0
   -1.9996    0.9163    0.9897 C   0  0  0  0  0  0  0  0  0  0  0  0
   -0.6326    0.7902    0.7533 C   0  0  0  0  0  0  0  0  0  0  0  0
    0.1948    1.2555    1.7441 O   0  0  0  0  0  0  0  0  0  0  0  0
    1.6149    1.1091    1.5643 C   0  0  0  0  0  0  0  0  0  0  0  0
    1.9625   -0.1213    0.7248 C   0  0  2  0  0  0  0  0  0  0  0  0
  1  2  1  0
  2  3  1  0
  3  4  1  0
  4  5  1  0
  5  6  1  0
  6  7  1  0
  8  7  1  6
  8  9  1  0
  9 10  1  0
 10 11  2  0
 11 12  1  0
 11 13  1  0
 13 14  2  0
 14 15  1  0
 15 16  1  0
 16 17  1  0
 18 17  1  1
 18  4  1  0
 18  8  1  0
 15  9  2  0
M  CHG  1   4   1
M  END
>  <score>  (2) 
0.494

>  <SMILES>  (2) 
CCC[NH+]1CCO[C@H]2c3cc(O)ccc3OC[C@@H]21

>  <name>  (2) 
PD128907_H+

>  <tanimoto_combination>  (2) 
0.49415642

>  <tanimoto_shape>  (2) 
0.6335329

>  <tanimoto_color>  (2) 
0.35477996

>  <overlap_volume>  (2) 
503.62646

>  <overlap_color>  (2) 
24.138538

>  <tanimoto_combo_legacy>  (2) 
0.98831284

>  <query_name>  (2) 
dopamine_H+_0

>  <query_SMILES>  (2) 
[NH3+]CCc1ccc(O)c(O)c1

$$$$
