None
     MoleculeKit    3D
 Structure written by MoleculeKit.
 23  0  0  0  0  0  0  0  0  0999 V2000
    3.6066    0.0099    0.7763 N   0  0  0  0  0  0  0  0  0  0  0  0
    4.9286    1.0004   -1.7279 F   0  0  0  0  0  0  0  0  0  0  0  0
    4.9398    1.3787    3.0891 F   0  0  0  0  0  0  0  0  0  0  0  0
    4.1913   -2.9217    1.0295 F   0  0  0  0  0  0  0  0  0  0  0  0
   -2.9671   -1.3691    1.3828 N   0  0  0  0  0  0  0  0  0  0  0  0
   -5.7680   -0.4394    0.8436 F   0  0  0  0  0  0  0  0  0  0  0  0
   -4.1211    0.4271   -0.2878 N   0  0  0  0  0  0  0  0  0  0  0  0
   -4.9596    2.3991   -2.3874 F   0  0  0  0  0  0  0  0  0  0  0  0
   -2.9671   -1.3691    1.3828 O   0  0  0  0  0  0  0  0  0  0  0  0
   -2.1737   -0.7468    4.2083 I   0  0  0  0  0  0  0  0  0  0  0  0
   -2.7231   -4.3200    0.9009 I   0  0  0  0  0  0  0  0  0  0  0  0
   -4.1211    0.4271   -0.2878 O   0  0  0  0  0  0  0  0  0  0  0  0
   -4.8606    1.4704    2.4260 I   0  0  0  0  0  0  0  0  0  0  0  0
   -5.4989   -2.1953   -0.7621 I   0  0  0  0  0  0  0  0  0  0  0  0
    3.6066    0.0099    0.7763 Fe  0  0  0  0  0  0  0  0  0  0  0  0
   -1.3939    0.0301   -0.3824 S   0  0  0  0  0  0  0  0  0  0  0  0
   -1.8411   -2.4754   -2.7850 B   0  0  0  0  0  0  0  0  0  0  0  0
   -0.9467    2.5356    2.0202 B   0  0  0  0  0  0  0  0  0  0  0  0
   -0.5949    0.7406   -1.2703 Br  0  0  0  0  0  0  0  0  0  0  0  0
   -1.9770    0.9646   -1.2510 Br  0  0  0  0  0  0  0  0  0  0  0  0
   -0.8240   -0.9085    0.4868 Br  0  0  0  0  0  0  0  0  0  0  0  0
   -0.0071   -0.1966   -0.4029 Br  0  0  0  0  0  0  0  0  0  0  0  0
    1.4810   -0.4240   -0.4038 Br  0  0  0  0  0  0  0  0  0  0  0  0
M  END
$$$$
None
     MoleculeKit    3D
 Structure written by MoleculeKit.
 23  0  0  0  0  0  0  0  0  0999 V2000
    3.5246    0.2821   -0.1834 N   0  0  0  0  0  0  0  0  0  0  0  0
    4.9131    2.8518   -0.8696 F   0  0  0  0  0  0  0  0  0  0  0  0
   -3.4925   -1.3162    1.2355 N   0  0  0  0  0  0  0  0  0  0  0  0
   -6.2494   -0.4093    0.4757 F   0  0  0  0  0  0  0  0  0  0  0  0
    1.5524   -1.0902    1.4037 O   0  0  0  0  0  0  0  0  0  0  0  0
   -0.9810   -1.3362    2.9918 I   0  0  0  0  0  0  0  0  0  0  0  0
    2.8937   -3.7686    1.2369 I   0  0  0  0  0  0  0  0  0  0  0  0
    0.2419    1.2882   -1.8736 O   0  0  0  0  0  0  0  0  0  0  0  0
   -0.7340    1.0787   -4.7029 I   0  0  0  0  0  0  0  0  0  0  0  0
    0.1995    4.1610   -1.0095 I   0  0  0  0  0  0  0  0  0  0  0  0
   -3.4925   -1.3162    1.2355 O   0  0  0  0  0  0  0  0  0  0  0  0
   -2.9921   -0.6883    4.1263 I   0  0  0  0  0  0  0  0  0  0  0  0
   -3.2546   -4.2746    0.7973 I   0  0  0  0  0  0  0  0  0  0  0  0
    3.5246    0.2821   -0.1834 Fe  0  0  0  0  0  0  0  0  0  0  0  0
   -1.6073   -0.0348   -0.2984 S   0  0  0  0  0  0  0  0  0  0  0  0
   -1.3708    2.5053    2.0983 B   0  0  0  0  0  0  0  0  0  0  0  0
   -1.8439   -2.5749   -2.6952 B   0  0  0  0  0  0  0  0  0  0  0  0
    6.5692   -0.3970   -0.3062 Br  0  0  0  0  0  0  0  0  0  0  0  0
    5.5694   -0.4628   -1.4486 Br  0  0  0  0  0  0  0  0  0  0  0  0
   -0.2472   -0.3384   -0.0985 Br  0  0  0  0  0  0  0  0  0  0  0  0
   -1.2355   -0.9790    0.6602 Br  0  0  0  0  0  0  0  0  0  0  0  0
   -2.9619    0.2725   -0.4858 Br  0  0  0  0  0  0  0  0  0  0  0  0
   -1.9856    0.9062   -1.2560 Br  0  0  0  0  0  0  0  0  0  0  0  0
M  END
$$$$
