dopamine_H+_0
     RDKit          3D

 11 11  0  0  0  0  0  0  0  0999 V2000
    3.5367   -0.2407   -0.8212 N   0  0  0  0  0  0  0  0  0  0  0  0
    2.0716   -0.4830   -0.7478 C   0  0  0  0  0  0  0  0  0  0  0  0
    1.4423    0.4211    0.3105 C   0  0  0  0  0  0  0  0  0  0  0  0
   -0.0394    0.1719    0.4221 C   0  0  0  0  0  0  0  0  0  0  0  0
   -0.5122   -0.9284    1.1602 C   0  0  0  0  0  0  0  0  0  0  0  0
   -1.8797   -1.1944    1.2397 C   0  0  0  0  0  0  0  0  0  0  0  0
   -2.7725   -0.3598    0.5869 C   0  0  0  0  0  0  0  0  0  0  0  0
   -4.1071   -0.6289    0.6671 O   0  0  0  0  0  0  0  0  0  0  0  0
   -2.3217    0.7394   -0.1369 C   0  0  0  0  0  0  0  0  0  0  0  0
   -3.2620    1.5218   -0.7452 O   0  0  0  0  0  0  0  0  0  0  0  0
   -0.9597    1.0124   -0.2284 C   0  0  0  0  0  0  0  0  0  0  0  0
  1  2  1  0
  2  3  1  0
  3  4  1  0
  4  5  1  0
  5  6  2  0
  6  7  1  0
  7  8  1  0
  7  9  2  0
  9 10  1  0
  9 11  1  0
 11  4  2  0
M  CHG  1   1   1
M  END
>  <Query>  (1) 
True

$$$$
PD128907_H+_33
     RDKit          3D

 18 20  0  0  0  0  0  0  0  0999 V2000
    5.8485   -1.8766   -1.8010 C   0  0  0  0  0  0  0  0  0  0  0  0
    5.8401   -1.5954   -0.3058 C   0  0  0  0  0  0  0  0  0  0  0  0
    4.4488   -1.6186    0.3269 C   0  0  0  0  0  0  0  0  0  0  0  0
    3.4939   -0.6319   -0.2938 N   0  0  0  0  0  0  0  0  0  0  0  0
    3.8902    0.8324   -0.1680 C   0  0  0  0  0  0  0  0  0  0  0  0
    2.9462    1.7039   -1.0289 C   0  0  0  0  0  0  0  0  0  0  0  0
    1.5862    1.2402   -1.0781 O   0  0  0  0  0  0  0  0  0  0  0  0
    1.2446    0.5028    0.0956 C   0  0  1  0  0  0  0  0  0  0  0  0
   -0.2177    0.2038    0.2359 C   0  0  0  0  0  0  0  0  0  0  0  0
   -1.2052    1.0380   -0.3070 C   0  0  0  0  0  0  0  0  0  0  0  0
   -2.5479    0.7325   -0.1044 C   0  0  0  0  0  0  0  0  0  0  0  0
   -3.5409    1.5092   -0.6196 O   0  0  0  0  0  0  0  0  0  0  0  0
   -2.9237   -0.3810    0.6380 C   0  0  0  0  0  0  0  0  0  0  0  0
   -1.9460   -1.2073    1.1906 C   0  0  0  0  0  0  0  0  0  0  0  0
   -0.5973   -0.9153    0.9957 C   0  0  0  0  0  0  0  0  0  0  0  0
    0.2916   -1.7930    1.5616 O   0  0  0  0  0  0  0  0  0  0  0  0
    1.6913   -1.5156    1.4057 C   0  0  0  0  0  0  0  0  0  0  0  0
    1.9971   -0.8448    0.0659 C   0  0  2  0  0  0  0  0  0  0  0  0
  1  2  1  0
  2  3  1  0
  3  4  1  0
  4  5  1  0
  5  6  1  0
  6  7  1  0
  8  7  1  6
  8  9  1  0
  9 10  1  0
 10 11  2  0
 11 12  1  0
 11 13  1  0
 13 14  2  0
 14 15  1  0
 15 16  1  0
 16 17  1  0
 18 17  1  1
 18  4  1  0
 18  8  1  0
 15  9  2  0
M  CHG  1   4   1
M  END
>  <score>  (2) 
0.496

>  <SMILES>  (2) 
CCC[NH+]1CCO[C@H]2c3cc(O)ccc3OC[C@@H]21

>  <name>  (2) 
PD128907_H+_33

>  <tanimoto_combination>  (2) 
0.4955262

>  <tanimoto_shape>  (2) 
0.628947

>  <tanimoto_color>  (2) 
0.3621054

>  <overlap_volume>  (2) 
501.515

>  <overlap_color>  (2) 
29.219751

>  <tanimoto_combo_legacy>  (2) 
0.9910524

>  <query_name>  (2) 
dopamine_H+_0

>  <query_SMILES>  (2) 
[NH3+]CCc1ccc(O)c(O)c1

$$$$
