None
     MoleculeKit    3D
 Structure written by MoleculeKit.
 21  0  0  0  0  0  0  0  0  0999 V2000
    3.5367   -0.2407   -0.8212 N   0  0  0  0  0  0  0  0  0  0  0  0
    4.8960   -0.8309    1.7872 F   0  0  0  0  0  0  0  0  0  0  0  0
    4.1723    2.5944   -1.5682 F   0  0  0  0  0  0  0  0  0  0  0  0
    4.8004   -2.0065   -2.8913 F   0  0  0  0  0  0  0  0  0  0  0  0
   -3.2620    1.5218   -0.7452 N   0  0  0  0  0  0  0  0  0  0  0  0
   -1.9411    3.9502   -1.9106 F   0  0  0  0  0  0  0  0  0  0  0  0
   -4.1071   -0.6289    0.6671 N   0  0  0  0  0  0  0  0  0  0  0  0
   -5.4468    1.5503   -0.9001 F   0  0  0  0  0  0  0  0  0  0  0  0
   -3.2620    1.5218   -0.7452 O   0  0  0  0  0  0  0  0  0  0  0  0
   -5.3269    3.2398   -2.0812 I   0  0  0  0  0  0  0  0  0  0  0  0
   -4.1071   -0.6289    0.6671 O   0  0  0  0  0  0  0  0  0  0  0  0
   -7.0428   -1.2208    0.8436 I   0  0  0  0  0  0  0  0  0  0  0  0
    3.5367   -0.2407   -0.8212 Fe  0  0  0  0  0  0  0  0  0  0  0  0
   -1.4142   -0.0932    0.5073 S   0  0  0  0  0  0  0  0  0  0  0  0
   -1.6293    1.9033    3.3739 B   0  0  0  0  0  0  0  0  0  0  0  0
   -1.1991   -2.0896   -2.3594 B   0  0  0  0  0  0  0  0  0  0  0  0
   -0.5122   -0.9284    1.1602 Br  0  0  0  0  0  0  0  0  0  0  0  0
   -1.8797   -1.1944    1.2397 Br  0  0  0  0  0  0  0  0  0  0  0  0
   -0.9597    1.0124   -0.2284 Br  0  0  0  0  0  0  0  0  0  0  0  0
   -0.0394    0.1719    0.4221 Br  0  0  0  0  0  0  0  0  0  0  0  0
    1.4423    0.4211    0.3105 Br  0  0  0  0  0  0  0  0  0  0  0  0
M  END
$$$$
None
     MoleculeKit    3D
 Structure written by MoleculeKit.
 20  0  0  0  0  0  0  0  0  0999 V2000
    3.4381   -0.6006   -0.4667 N   0  0  0  0  0  0  0  0  0  0  0  0
    3.2270   -0.7229   -3.4568 F   0  0  0  0  0  0  0  0  0  0  0  0
   -3.5601    1.5253   -0.6830 N   0  0  0  0  0  0  0  0  0  0  0  0
   -2.3858    3.8003   -2.2470 F   0  0  0  0  0  0  0  0  0  0  0  0
    1.5972    1.3314   -1.0920 O   0  0  0  0  0  0  0  0  0  0  0  0
   -0.2290    1.9188   -3.3987 I   0  0  0  0  0  0  0  0  0  0  0  0
    0.3006   -1.7183    1.5385 O   0  0  0  0  0  0  0  0  0  0  0  0
   -0.7397   -3.9960    3.1909 I   0  0  0  0  0  0  0  0  0  0  0  0
   -3.5601    1.5253   -0.6830 O   0  0  0  0  0  0  0  0  0  0  0  0
   -5.7615    3.2047   -1.8380 I   0  0  0  0  0  0  0  0  0  0  0  0
    3.4381   -0.6006   -0.4667 Fe  0  0  0  0  0  0  0  0  0  0  0  0
   -1.5806   -0.0436    0.3980 S   0  0  0  0  0  0  0  0  0  0  0  0
   -1.5907   -2.0385   -2.4780 B   0  0  0  0  0  0  0  0  0  0  0  0
   -1.5705    1.9512    3.2740 B   0  0  0  0  0  0  0  0  0  0  0  0
    6.2475   -0.9941   -1.7746 Br  0  0  0  0  0  0  0  0  0  0  0  0
    5.3216   -2.0769   -1.2487 Br  0  0  0  0  0  0  0  0  0  0  0  0
   -0.2300    0.2519    0.1823 Br  0  0  0  0  0  0  0  0  0  0  0  0
   -1.2207    1.0723   -0.3722 Br  0  0  0  0  0  0  0  0  0  0  0  0
   -2.9281   -0.3395    0.6053 Br  0  0  0  0  0  0  0  0  0  0  0  0
   -1.9448   -1.1517    1.1693 Br  0  0  0  0  0  0  0  0  0  0  0  0
M  END
$$$$
